

        *** GPGPU-Sim Simulator Version 3.2.2  [build 0] ***


GPGPU-Sim PTX: simulation mode 0 (can change with PTX_SIM_MODE_FUNC environment variable:
               1=functional simulation only, 0=detailed performance simulator)
GPGPU-Sim: Configuration options:

-network_mode                           1 # Interconnection network mode
-inter_config_file   config_fermi_islip.icnt # Interconnection network config file
-gpgpu_ptx_use_cuobjdump                    1 # Use cuobjdump to extract ptx and sass from binaries
-gpgpu_experimental_lib_support                    0 # Try to extract code from cuda libraries [Broken because of unknown cudaGetExportTable]
-gpgpu_ptx_convert_to_ptxplus                    0 # Convert SASS (native ISA) to ptxplus and run ptxplus
-gpgpu_ptx_force_max_capability                   20 # Force maximum compute capability
-gpgpu_ptx_inst_debug_to_file                    0 # Dump executed instructions' debug information to file
-gpgpu_ptx_inst_debug_file       inst_debug.txt # Executed instructions' debug output file
-gpgpu_ptx_inst_debug_thread_uid                    1 # Thread UID for executed instructions' debug output
-gpgpu_simd_model                       1 # 1 = post-dominator
-gpgpu_shader_core_pipeline              1536:32 # shader core pipeline config, i.e., {<nthread>:<warpsize>}
-gpgpu_tex_cache:l1  4:128:24,L:R:m:N:L,F:128:4,128:2 # per-shader L1 texture cache  (READ-ONLY) config  {<nsets>:<bsize>:<assoc>,<rep>:<wr>:<alloc>:<wr_alloc>,<mshr>:<N>:<merge>,<mq>:<rf>}
-gpgpu_const_cache:l1 64:64:2,L:R:f:N:L,A:2:32,4 # per-shader L1 constant memory cache  (READ-ONLY) config  {<nsets>:<bsize>:<assoc>,<rep>:<wr>:<alloc>:<wr_alloc>,<mshr>:<N>:<merge>,<mq>} 
-gpgpu_cache:il1     4:128:4,L:R:f:N:L,A:2:32,4 # shader L1 instruction cache config  {<nsets>:<bsize>:<assoc>,<rep>:<wr>:<alloc>:<wr_alloc>,<mshr>:<N>:<merge>,<mq>} 
-gpgpu_cache:dl1     32:128:4,L:L:m:N:H,A:32:8,8 # per-shader L1 data cache config  {<nsets>:<bsize>:<assoc>,<rep>:<wr>:<alloc>:<wr_alloc>,<mshr>:<N>:<merge>,<mq> | none}
-gpgpu_cache:dl1PrefL1                 none # per-shader L1 data cache config  {<nsets>:<bsize>:<assoc>,<rep>:<wr>:<alloc>:<wr_alloc>,<mshr>:<N>:<merge>,<mq> | none}
-gpgpu_cache:dl1PreShared                 none # per-shader L1 data cache config  {<nsets>:<bsize>:<assoc>,<rep>:<wr>:<alloc>:<wr_alloc>,<mshr>:<N>:<merge>,<mq> | none}
-gmem_skip_L1D                          0 # global memory access skip L1D cache (implements -Xptxas -dlcm=cg, default=no skip)
-gpgpu_perfect_mem                      0 # enable perfect memory mode (no cache miss)
-n_regfile_gating_group                    4 # group of lanes that should be read/written together)
-gpgpu_clock_gated_reg_file                    0 # enable clock gated reg file for power calculations
-gpgpu_clock_gated_lanes                    0 # enable clock gated lanes for power calculations
-gpgpu_shader_registers                32768 # Number of registers per shader core. Limits number of concurrent CTAs. (default 8192)
-gpgpu_shader_cta                       8 # Maximum number of concurrent CTAs in shader (default 8)
-gpgpu_num_cta_barriers                   16 # Maximum number of named barriers per CTA (default 16)
-gpgpu_n_clusters                      15 # number of processing clusters
-gpgpu_n_cores_per_cluster                    1 # number of simd cores per cluster
-gpgpu_n_cluster_ejection_buffer_size                    8 # number of packets in ejection buffer
-gpgpu_n_ldst_response_buffer_size                    2 # number of response packets in ld/st unit ejection buffer
-gpgpu_shmem_size                   16384 # Size of shared memory per shader core (default 16kB)
-gpgpu_shmem_size                   49152 # Size of shared memory per shader core (default 16kB)
-gpgpu_shmem_size_PrefL1                16384 # Size of shared memory per shader core (default 16kB)
-gpgpu_shmem_size_PrefShared                16384 # Size of shared memory per shader core (default 16kB)
-gpgpu_shmem_num_banks                   32 # Number of banks in the shared memory in each shader core (default 16)
-gpgpu_shmem_limited_broadcast                    0 # Limit shared memory to do one broadcast per cycle (default on)
-gpgpu_shmem_warp_parts                    1 # Number of portions a warp is divided into for shared memory bank conflict check 
-gpgpu_warpdistro_shader                   -1 # Specify which shader core to collect the warp size distribution from
-gpgpu_warp_issue_shader                    0 # Specify which shader core to collect the warp issue distribution from
-gpgpu_local_mem_map                    1 # Mapping from local memory space address to simulated GPU physical address space (default = enabled)
-gpgpu_num_reg_banks                   16 # Number of register banks (default = 8)
-gpgpu_reg_bank_use_warp_id                    0 # Use warp ID in mapping registers to banks (default = off)
-gpgpu_operand_collector_num_units_sp                    6 # number of collector units (default = 4)
-gpgpu_operand_collector_num_units_sfu                    8 # number of collector units (default = 4)
-gpgpu_operand_collector_num_units_mem                    2 # number of collector units (default = 2)
-gpgpu_operand_collector_num_units_gen                    0 # number of collector units (default = 0)
-gpgpu_operand_collector_num_in_ports_sp                    2 # number of collector unit in ports (default = 1)
-gpgpu_operand_collector_num_in_ports_sfu                    1 # number of collector unit in ports (default = 1)
-gpgpu_operand_collector_num_in_ports_mem                    1 # number of collector unit in ports (default = 1)
-gpgpu_operand_collector_num_in_ports_gen                    0 # number of collector unit in ports (default = 0)
-gpgpu_operand_collector_num_out_ports_sp                    2 # number of collector unit in ports (default = 1)
-gpgpu_operand_collector_num_out_ports_sfu                    1 # number of collector unit in ports (default = 1)
-gpgpu_operand_collector_num_out_ports_mem                    1 # number of collector unit in ports (default = 1)
-gpgpu_operand_collector_num_out_ports_gen                    0 # number of collector unit in ports (default = 0)
-gpgpu_coalesce_arch                   13 # Coalescing arch (default = 13, anything else is off for now)
-gpgpu_num_sched_per_core                    2 # Number of warp schedulers per core
-gpgpu_max_insn_issue_per_warp                    1 # Max number of instructions that can be issued per warp in one cycle by scheduler
-gpgpu_simt_core_sim_order                    1 # Select the simulation order of cores in a cluster (0=Fix, 1=Round-Robin)
-gpgpu_pipeline_widths        2,1,1,2,1,1,2 # Pipeline widths ID_OC_SP,ID_OC_SFU,ID_OC_MEM,OC_EX_SP,OC_EX_SFU,OC_EX_MEM,EX_WB
-gpgpu_num_sp_units                     2 # Number of SP units (default=1)
-gpgpu_num_sfu_units                    1 # Number of SF units (default=1)
-gpgpu_num_mem_units                    1 # Number if ldst units (default=1) WARNING: not hooked up to anything
-gpgpu_scheduler                      gto # Scheduler configuration: < lrr | gto | two_level_active > If two_level_active:<num_active_warps>:<inner_prioritization>:<outer_prioritization>For complete list of prioritization values see shader.h enum scheduler_prioritization_typeDefault: gto
-gpgpu_dram_scheduler                    1 # 0 = fifo, 1 = FR-FCFS (defaul)
-gpgpu_dram_partition_queues              8:8:8:8 # i2$:$2d:d2$:$2i
-l2_ideal                               0 # Use a ideal L2 cache that always hit
-gpgpu_cache:dl2     64:128:8,L:B:m:W:L,A:32:4,4:0,32 # unified banked L2 data cache config  {<nsets>:<bsize>:<assoc>,<rep>:<wr>:<alloc>:<wr_alloc>,<mshr>:<N>:<merge>,<mq>}
-gpgpu_cache:dl2_texture_only                    0 # L2 cache used for texture only
-gpgpu_n_mem                            6 # number of memory modules (e.g. memory controllers) in gpu
-gpgpu_n_sub_partition_per_mchannel                    2 # number of memory subpartition in each memory module
-gpgpu_n_mem_per_ctrlr                    2 # number of memory chips per memory controller
-gpgpu_memlatency_stat                   14 # track and display latency statistics 0x2 enables MC, 0x4 enables queue logs
-gpgpu_frfcfs_dram_sched_queue_size                   16 # 0 = unlimited (default); # entries per chip
-gpgpu_dram_return_queue_size                  116 # 0 = unlimited (default); # entries per chip
-gpgpu_dram_buswidth                    4 # default = 4 bytes (8 bytes per cycle at DDR)
-gpgpu_dram_burst_length                    8 # Burst length of each DRAM request (default = 4 data bus cycle)
-dram_data_command_freq_ratio                    4 # Frequency ratio between DRAM data bus and command bus (default = 2 times, i.e. DDR)
-gpgpu_dram_timing_opt nbk=16:CCD=2:RRD=6:RCD=12:RAS=28:RP=12:RC=40: CL=12:WL=4:CDLR=5:WR=12:nbkgrp=4:CCDL=3:RTPL=2 # DRAM timing parameters = {nbk:tCCD:tRRD:tRCD:tRAS:tRP:tRC:CL:WL:tCDLR:tWR:nbkgrp:tCCDL:tRTPL}
-rop_latency                          120 # ROP queue latency (default 85)
-dram_latency                         100 # DRAM latency (default 30)
-gpgpu_mem_addr_mapping dramid@8;00000000.00000000.00000000.00000000.0000RRRR.RRRRRRRR.BBBCCCCB.CCSSSSSS # mapping memory address to dram model {dramid@<start bit>;<memory address map>}
-gpgpu_mem_addr_test                    0 # run sweep test to check address mapping for aliased address
-gpgpu_mem_address_mask                    1 # 0 = old addressing mask, 1 = new addressing mask, 2 = new add. mask + flipped bank sel and chip sel bits
-gpuwattch_xml_file  gpuwattch_gtx480.xml # GPUWattch XML file
-power_simulation_enabled                    1 # Turn on power simulator (1=On, 0=Off)
-power_per_cycle_dump                    0 # Dump detailed power output each cycle
-power_trace_enabled                    0 # produce a file for the power trace (1=On, 0=Off)
-power_trace_zlevel                     6 # Compression level of the power trace output log (0=no comp, 9=highest)
-steady_power_levels_enabled                    0 # produce a file for the steady power levels (1=On, 0=Off)
-steady_state_definition                  8:4 # allowed deviation:number of samples
-gpgpu_max_cycle                        0 # terminates gpu simulation early (0 = no limit)
-gpgpu_max_insn                         0 # terminates gpu simulation early (0 = no limit)
-gpgpu_max_cta                          0 # terminates gpu simulation early (0 = no limit)
-gpgpu_runtime_stat                   500 # display runtime statistics such as dram utilization {<freq>:<flag>}
-liveness_message_freq                    1 # Minimum number of seconds between simulation liveness messages (0 = always print)
-gpgpu_flush_l1_cache                    0 # Flush L1 cache at the end of each kernel call
-gpgpu_flush_l2_cache                    0 # Flush L2 cache at the end of each kernel call
-gpgpu_deadlock_detect                    1 # Stop the simulation at deadlock (1=on (default), 0=off)
-gpgpu_ptx_instruction_classification                    0 # if enabled will classify ptx instruction types per kernel (Max 255 kernels now)
-gpgpu_ptx_sim_mode                     0 # Select between Performance (default) or Functional simulation (1)
-gpgpu_clock_domains 700.0:700.0:700.0:924.0 # Clock Domain Frequencies in MhZ {<Core Clock>:<ICNT Clock>:<L2 Clock>:<DRAM Clock>}
-gpgpu_max_concurrent_kernel                    8 # maximum kernels that can run concurrently on GPU
-gpgpu_cflog_interval                    0 # Interval between each snapshot in control flow logger
-visualizer_enabled                     0 # Turn on visualizer output (1=On, 0=Off)
-visualizer_outputfile                 NULL # Specifies the output log file for visualizer
-visualizer_zlevel                      6 # Compression level of the visualizer output log (0=no comp, 9=highest)
-trace_enabled                          0 # Turn on traces
-trace_components                    none # comma seperated list of traces to enable. Complete list found in trace_streams.tup. Default none
-trace_sampling_core                    0 # The core which is printed using CORE_DPRINTF. Default 0
-trace_sampling_memory_partition                   -1 # The memory partition which is printed using MEMPART_DPRINTF. Default -1 (i.e. all)
-enable_ptx_file_line_stats                    1 # Turn on PTX source line statistic profiling. (1 = On)
-ptx_line_stats_filename gpgpu_inst_stats.txt # Output file for PTX source line statistics.
-save_embedded_ptx                      0 # saves ptx files embedded in binary as <n>.ptx
-keep                                   0 # keep intermediate files created by GPGPU-Sim when interfacing with external programs
-gpgpu_ptx_save_converted_ptxplus                    0 # Saved converted ptxplus to a file
-ptx_opcode_latency_int         4,13,4,5,145 # Opcode latencies for integers <ADD,MAX,MUL,MAD,DIV>Default 1,1,19,25,145
-ptx_opcode_latency_fp          4,13,4,5,39 # Opcode latencies for single precision floating points <ADD,MAX,MUL,MAD,DIV>Default 1,1,1,1,30
-ptx_opcode_latency_dp         8,19,8,8,330 # Opcode latencies for double precision floating points <ADD,MAX,MUL,MAD,DIV>Default 8,8,8,8,335
-ptx_opcode_initiation_int            1,2,2,1,8 # Opcode initiation intervals for integers <ADD,MAX,MUL,MAD,DIV>Default 1,1,4,4,32
-ptx_opcode_initiation_fp            1,2,1,1,4 # Opcode initiation intervals for single precision floating points <ADD,MAX,MUL,MAD,DIV>Default 1,1,1,1,5
-ptx_opcode_initiation_dp         8,16,8,8,130 # Opcode initiation intervals for double precision floating points <ADD,MAX,MUL,MAD,DIV>Default 8,8,8,8,130
DRAM Timing Options:
nbk                                    16 # number of banks
CCD                                     2 # column to column delay
RRD                                     6 # minimal delay between activation of rows in different banks
RCD                                    12 # row to column delay
RAS                                    28 # time needed to activate row
RP                                     12 # time needed to precharge (deactivate) row
RC                                     40 # row cycle time
CDLR                                    5 # switching from write to read (changes tWTR)
WR                                     12 # last data-in to row precharge
CL                                     12 # CAS latency
WL                                      4 # Write latency
nbkgrp                                  4 # number of bank groups
CCDL                                    3 # column to column delay between accesses to different bank groups
RTPL                                    2 # read to precharge delay between accesses to different bank groups
Total number of memory sub partition = 12
addr_dec_mask[CHIP]  = 0000000000000000 	high:64 low:0
addr_dec_mask[BK]    = 000000000000e100 	high:16 low:8
addr_dec_mask[ROW]   = 000000000fff0000 	high:28 low:16
addr_dec_mask[COL]   = 0000000000001eff 	high:13 low:0
addr_dec_mask[BURST] = 000000000000003f 	high:6 low:0
sub_partition_id_mask = 0000000000000100
GPGPU-Sim uArch: clock freqs: 700000000.000000:700000000.000000:700000000.000000:924000000.000000
GPGPU-Sim uArch: clock periods: 0.00000000142857142857:0.00000000142857142857:0.00000000142857142857:0.00000000108225108225
*** Initializing Memory Statistics ***
GPGPU-Sim uArch: interconnect node map (shaderID+MemID to icntID)
GPGPU-Sim uArch: Memory nodes ID start from index: 15
GPGPU-Sim uArch:    0   1   2   3   4
GPGPU-Sim uArch:    5   6   7   8   9
GPGPU-Sim uArch:   10  11  12  13  14
GPGPU-Sim uArch:   15  16  17  18  19
GPGPU-Sim uArch:   20  21  22  23  24
GPGPU-Sim uArch:   25  26
GPGPU-Sim uArch: interconnect node reverse map (icntID to shaderID+MemID)
GPGPU-Sim uArch: Memory nodes start from ID: 15
GPGPU-Sim uArch:    0   1   2   3   4
GPGPU-Sim uArch:    5   6   7   8   9
GPGPU-Sim uArch:   10  11  12  13  14
GPGPU-Sim uArch:   15  16  17  18  19
GPGPU-Sim uArch:   20  21  22  23  24
GPGPU-Sim uArch:   25  26
4cc07f29a86b0134fa54437f10acba83  /root/Abhay/cudaReduction/reduction
GPGPU-Sim uArch: performance model initialization complete.
GPGPU-Sim PTX: __cudaRegisterFatBinary, fat_cubin_handle = 1, filename=main.cu
self exe links to: /root/Abhay/cudaReduction/reduction
Running md5sum using "md5sum /root/Abhay/cudaReduction/reduction "
Running cuobjdump using "$CUDA_INSTALL_PATH/bin/cuobjdump -ptx -elf -sass /root/Abhay/cudaReduction/reduction > _cuobjdump_complete_output_1QDKol"
Parsing file _cuobjdump_complete_output_1QDKol
######### cuobjdump parser ########
## Adding new section ELF
Adding arch: sm_10
Adding identifier: main.cu
## Adding new section PTX
Adding ptx filename: _cuobjdump_1.ptx
Adding arch: sm_10
Adding identifier: main.cu
## Adding new section ELF
   syntax error near "
" on line 370
Done parsing!!!
GPGPU-Sim PTX: __cudaRegisterFunction _Z9reductionPfS_j : hostFun 0x0x400f40, fat_cubin_handle = 1
GPGPU-Sim PTX: allocating shared region for "__cuda___cuda_local_var_16314_35_non_const_partialSum20" from 0x0 to 0x1000 (shared memory space)
GPGPU-Sim PTX: instruction assembly for function '_Z9reductionPfS_j'...   done.
GPGPU-Sim PTX: finding reconvergence points for '_Z9reductionPfS_j'...
GPGPU-Sim PTX: Finding dominators for '_Z9reductionPfS_j'...
GPGPU-Sim PTX: Finding immediate dominators for '_Z9reductionPfS_j'...
GPGPU-Sim PTX: Finding postdominators for '_Z9reductionPfS_j'...
GPGPU-Sim PTX: Finding immediate postdominators for '_Z9reductionPfS_j'...
GPGPU-Sim PTX: pre-decoding instructions for '_Z9reductionPfS_j'...
GPGPU-Sim PTX: reconvergence points for _Z9reductionPfS_j...
GPGPU-Sim PTX:  1 (potential) branch divergence @  PC=0x060 (_1.ptx:73) @%p1 bra $Lt_0_3842;
GPGPU-Sim PTX:    immediate post dominator      @  PC=0x0b0 (_1.ptx:87) add.u32 %r8, %r4, %r1;
GPGPU-Sim PTX:  2 (potential) branch divergence @  PC=0x098 (_1.ptx:81) bra.uni $Lt_0_3586;
GPGPU-Sim PTX:    immediate post dominator      @  PC=0x0b0 (_1.ptx:87) add.u32 %r8, %r4, %r1;
GPGPU-Sim PTX:  3 (potential) branch divergence @  PC=0x0e8 (_1.ptx:96) @%p2 bra $Lt_0_4354;
GPGPU-Sim PTX:    immediate post dominator      @  PC=0x148 (_1.ptx:112) mov.u32 %r12, 1;
GPGPU-Sim PTX:  4 (potential) branch divergence @  PC=0x130 (_1.ptx:106) bra.uni $Lt_0_4098;
GPGPU-Sim PTX:    immediate post dominator      @  PC=0x148 (_1.ptx:112) mov.u32 %r12, 1;
GPGPU-Sim PTX:  5 (potential) branch divergence @  PC=0x158 (_1.ptx:114) @%p3 bra $Lt_0_4610;
GPGPU-Sim PTX:    immediate post dominator      @  PC=0x208 (_1.ptx:144) bar.sync 0;
GPGPU-Sim PTX:  6 (potential) branch divergence @  PC=0x188 (_1.ptx:123) @%p4 bra $Lt_0_5378;
GPGPU-Sim PTX:    immediate post dominator      @  PC=0x1f0 (_1.ptx:139) mul.lo.u32 %r13, %r13, 2;
GPGPU-Sim PTX:  7 (potential) branch divergence @  PC=0x200 (_1.ptx:141) @%p5 bra $Lt_0_5122;
GPGPU-Sim PTX:    immediate post dominator      @  PC=0x208 (_1.ptx:144) bar.sync 0;
GPGPU-Sim PTX: ... end of reconvergence points for _Z9reductionPfS_j
GPGPU-Sim PTX: ... done pre-decoding instructions for '_Z9reductionPfS_j'.
GPGPU-Sim PTX: finished parsing EMBEDDED .ptx file _1.ptx
Adding _cuobjdump_1.ptx with cubin handle 1
GPGPU-Sim PTX: extracting embedded .ptx to temporary file "_ptx_Z6nlt0"
Running: cat _ptx_Z6nlt0 | sed 's/.version 1.5/.version 1.4/' | sed 's/, texmode_independent//' | sed 's/\(\.extern \.const\[1\] .b8 \w\+\)\[\]/\1\[1\]/' | sed 's/const\[.\]/const\[0\]/g' > _ptx2_LFWXxF
GPGPU-Sim PTX: generating ptxinfo using "$CUDA_INSTALL_PATH/bin/ptxas --gpu-name=sm_20 -v _ptx2_LFWXxF --output-file  /dev/null 2> _ptx_Z6nlt0info"
GPGPU-Sim PTX: Kernel '_Z9reductionPfS_j' : regs=10, lmem=0, smem=4096, cmem=52
GPGPU-Sim PTX: removing ptxinfo using "rm -f _ptx_Z6nlt0 _ptx2_LFWXxF _ptx_Z6nlt0info"
GPGPU-Sim PTX: loading globals with explicit initializers... 
GPGPU-Sim PTX: finished loading globals (0 bytes total).
GPGPU-Sim PTX: loading constants with explicit initializers...  done.
GPGPU-Sim PTX: __cudaRegisterFatBinary, fat_cubin_handle = 2, filename=

Setting up the problem...0.026309 s
    Input size = 1000000
Allocating device variables...0.000010 s
Copying data from host to device...0.110001 s
Launching kernel...
GPGPU-Sim PTX: cudaLaunch for 0x0x400f40 (mode=performance simulation) on stream 0
GPGPU-Sim PTX: pushing kernel '_Z9reductionPfS_j' to stream 0, gridDim= (977,1,1) blockDim = (512,1,1) 
kernel '_Z9reductionPfS_j' transfer to GPU hardware scheduler
GPGPU-Sim uArch: Shader 1 bind to kernel 1 '_Z9reductionPfS_j'
GPGPU-Sim uArch: CTA/core = 3, limited by: threads
GPGPU-Sim uArch: core:  1, cta: 0 initialized @(1,0)
GPGPU-Sim uArch: Shader 2 bind to kernel 1 '_Z9reductionPfS_j'
GPGPU-Sim uArch: core:  2, cta: 0 initialized @(1,0)
GPGPU-Sim uArch: Shader 3 bind to kernel 1 '_Z9reductionPfS_j'
GPGPU-Sim uArch: core:  3, cta: 0 initialized @(1,0)
GPGPU-Sim uArch: Shader 4 bind to kernel 1 '_Z9reductionPfS_j'
GPGPU-Sim uArch: core:  4, cta: 0 initialized @(1,0)
GPGPU-Sim uArch: Shader 5 bind to kernel 1 '_Z9reductionPfS_j'
GPGPU-Sim uArch: core:  5, cta: 0 initialized @(1,0)
GPGPU-Sim uArch: Shader 6 bind to kernel 1 '_Z9reductionPfS_j'
GPGPU-Sim uArch: core:  6, cta: 0 initialized @(1,0)
GPGPU-Sim uArch: Shader 7 bind to kernel 1 '_Z9reductionPfS_j'
GPGPU-Sim uArch: core:  7, cta: 0 initialized @(1,0)
GPGPU-Sim uArch: Shader 8 bind to kernel 1 '_Z9reductionPfS_j'
GPGPU-Sim uArch: core:  8, cta: 0 initialized @(1,0)
GPGPU-Sim uArch: Shader 9 bind to kernel 1 '_Z9reductionPfS_j'
GPGPU-Sim uArch: core:  9, cta: 0 initialized @(1,0)
GPGPU-Sim uArch: Shader 10 bind to kernel 1 '_Z9reductionPfS_j'
GPGPU-Sim uArch: core: 10, cta: 0 initialized @(1,0)
GPGPU-Sim uArch: Shader 11 bind to kernel 1 '_Z9reductionPfS_j'
GPGPU-Sim uArch: core: 11, cta: 0 initialized @(1,0)
GPGPU-Sim uArch: Shader 12 bind to kernel 1 '_Z9reductionPfS_j'
GPGPU-Sim uArch: core: 12, cta: 0 initialized @(1,0)
GPGPU-Sim uArch: Shader 13 bind to kernel 1 '_Z9reductionPfS_j'
GPGPU-Sim uArch: core: 13, cta: 0 initialized @(1,0)
GPGPU-Sim uArch: Shader 14 bind to kernel 1 '_Z9reductionPfS_j'
GPGPU-Sim uArch: core: 14, cta: 0 initialized @(1,0)
GPGPU-Sim uArch: Shader 0 bind to kernel 1 '_Z9reductionPfS_j'
GPGPU-Sim uArch: core:  0, cta: 0 initialized @(1,0)
GPGPU-Sim uArch: core:  1, cta: 1 initialized @(2,0)
GPGPU-Sim uArch: core:  2, cta: 1 initialized @(2,0)
GPGPU-Sim uArch: core:  3, cta: 1 initialized @(2,0)
GPGPU-Sim uArch: core:  4, cta: 1 initialized @(2,0)
GPGPU-Sim uArch: core:  5, cta: 1 initialized @(2,0)
GPGPU-Sim uArch: core:  6, cta: 1 initialized @(2,0)
GPGPU-Sim uArch: core:  7, cta: 1 initialized @(2,0)
GPGPU-Sim uArch: core:  8, cta: 1 initialized @(2,0)
GPGPU-Sim uArch: core:  9, cta: 1 initialized @(2,0)
GPGPU-Sim uArch: core: 10, cta: 1 initialized @(2,0)
GPGPU-Sim uArch: core: 11, cta: 1 initialized @(2,0)
GPGPU-Sim uArch: core: 12, cta: 1 initialized @(2,0)
GPGPU-Sim uArch: core: 13, cta: 1 initialized @(2,0)
GPGPU-Sim uArch: core: 14, cta: 1 initialized @(2,0)
GPGPU-Sim uArch: core:  0, cta: 1 initialized @(2,0)
GPGPU-Sim uArch: core:  1, cta: 2 initialized @(3,0)
GPGPU-Sim uArch: core:  2, cta: 2 initialized @(3,0)
GPGPU-Sim uArch: core:  3, cta: 2 initialized @(3,0)
GPGPU-Sim uArch: core:  4, cta: 2 initialized @(3,0)
GPGPU-Sim uArch: core:  5, cta: 2 initialized @(3,0)
GPGPU-Sim uArch: core:  6, cta: 2 initialized @(3,0)
GPGPU-Sim uArch: core:  7, cta: 2 initialized @(3,0)
GPGPU-Sim uArch: core:  8, cta: 2 initialized @(3,0)
GPGPU-Sim uArch: core:  9, cta: 2 initialized @(3,0)
GPGPU-Sim uArch: core: 10, cta: 2 initialized @(3,0)
GPGPU-Sim uArch: core: 11, cta: 2 initialized @(3,0)
GPGPU-Sim uArch: core: 12, cta: 2 initialized @(3,0)
GPGPU-Sim uArch: core: 13, cta: 2 initialized @(3,0)
GPGPU-Sim uArch: core: 14, cta: 2 initialized @(3,0)
GPGPU-Sim uArch: core:  0, cta: 2 initialized @(3,0)
GPGPU-Sim PTX: 100000 instructions simulated : ctaid=(15,0,0) tid=(191,0,0)
GPGPU-Sim uArch: cycles simulated: 500  inst.: 134016 (ipc=268.0) sim_rate=134016 (inst/sec) elapsed = 0:0:00:01 / Wed Jan 30 06:42:32 2019
GPGPU-Sim PTX: 200000 instructions simulated : ctaid=(24,0,0) tid=(383,0,0)
GPGPU-Sim PTX: 300000 instructions simulated : ctaid=(10,0,0) tid=(383,0,0)
GPGPU-Sim PTX: 400000 instructions simulated : ctaid=(42,0,0) tid=(287,0,0)
GPGPU-Sim PTX: 500000 instructions simulated : ctaid=(9,0,0) tid=(63,0,0)
GPGPU-Sim PTX: 600000 instructions simulated : ctaid=(13,0,0) tid=(287,0,0)
GPGPU-Sim uArch: cycles simulated: 2000  inst.: 632160 (ipc=316.1) sim_rate=316080 (inst/sec) elapsed = 0:0:00:02 / Wed Jan 30 06:42:33 2019
GPGPU-Sim PTX: 700000 instructions simulated : ctaid=(30,0,0) tid=(223,0,0)
GPGPU-Sim PTX: 800000 instructions simulated : ctaid=(16,0,0) tid=(319,0,0)
GPGPU-Sim PTX: 900000 instructions simulated : ctaid=(37,0,0) tid=(383,0,0)
GPGPU-Sim PTX: 1000000 instructions simulated : ctaid=(9,0,0) tid=(223,0,0)
GPGPU-Sim PTX: 1100000 instructions simulated : ctaid=(12,0,0) tid=(479,0,0)
GPGPU-Sim uArch: cycles simulated: 3000  inst.: 1013312 (ipc=337.8) sim_rate=337770 (inst/sec) elapsed = 0:0:00:03 / Wed Jan 30 06:42:34 2019
GPGPU-Sim PTX: 1200000 instructions simulated : ctaid=(6,0,0) tid=(127,0,0)
GPGPU-Sim PTX: 1300000 instructions simulated : ctaid=(32,0,0) tid=(319,0,0)
GPGPU-Sim PTX: 1400000 instructions simulated : ctaid=(18,0,0) tid=(351,0,0)
GPGPU-Sim PTX: 1500000 instructions simulated : ctaid=(9,0,0) tid=(190,0,0)
GPGPU-Sim PTX: 1600000 instructions simulated : ctaid=(10,0,0) tid=(183,0,0)
GPGPU-Sim PTX: 1700000 instructions simulated : ctaid=(13,0,0) tid=(156,0,0)
GPGPU-Sim uArch: cycles simulated: 4000  inst.: 1653264 (ipc=413.3) sim_rate=413316 (inst/sec) elapsed = 0:0:00:04 / Wed Jan 30 06:42:35 2019
GPGPU-Sim PTX: 1800000 instructions simulated : ctaid=(16,0,0) tid=(44,0,0)
GPGPU-Sim PTX: 1900000 instructions simulated : ctaid=(17,0,0) tid=(53,0,0)
GPGPU-Sim PTX: 2000000 instructions simulated : ctaid=(20,0,0) tid=(137,0,0)
GPGPU-Sim PTX: 2100000 instructions simulated : ctaid=(5,0,0) tid=(452,0,0)
GPGPU-Sim PTX: 2200000 instructions simulated : ctaid=(28,0,0) tid=(14,0,0)
GPGPU-Sim uArch: cycles simulated: 5000  inst.: 2086834 (ipc=417.4) sim_rate=417366 (inst/sec) elapsed = 0:0:00:05 / Wed Jan 30 06:42:36 2019
GPGPU-Sim PTX: 2300000 instructions simulated : ctaid=(40,0,0) tid=(487,0,0)
GPGPU-Sim PTX: 2400000 instructions simulated : ctaid=(34,0,0) tid=(426,0,0)
GPGPU-Sim PTX: 2500000 instructions simulated : ctaid=(6,0,0) tid=(283,0,0)
GPGPU-Sim PTX: 2600000 instructions simulated : ctaid=(14,0,0) tid=(186,0,0)
GPGPU-Sim uArch: cycles simulated: 6000  inst.: 2553441 (ipc=425.6) sim_rate=425573 (inst/sec) elapsed = 0:0:00:06 / Wed Jan 30 06:42:37 2019
GPGPU-Sim PTX: 2700000 instructions simulated : ctaid=(2,0,0) tid=(446,0,0)
GPGPU-Sim PTX: 2800000 instructions simulated : ctaid=(36,0,0) tid=(64,0,0)
GPGPU-Sim uArch: Shader 4 finished CTA #0 (6366,0), 2 CTAs running
GPGPU-Sim uArch: core:  4, cta: 0 initialized @(6367,0)
GPGPU-Sim uArch: Shader 3 finished CTA #0 (6394,0), 2 CTAs running
GPGPU-Sim uArch: core:  3, cta: 0 initialized @(6395,0)
GPGPU-Sim PTX: 2900000 instructions simulated : ctaid=(22,0,0) tid=(351,0,0)
GPGPU-Sim uArch: Shader 8 finished CTA #0 (6587,0), 2 CTAs running
GPGPU-Sim uArch: core:  8, cta: 0 initialized @(6588,0)
GPGPU-Sim PTX: 3000000 instructions simulated : ctaid=(24,0,0) tid=(101,0,0)
GPGPU-Sim uArch: Shader 10 finished CTA #0 (6685,0), 2 CTAs running
GPGPU-Sim uArch: core: 10, cta: 0 initialized @(6686,0)
GPGPU-Sim PTX: 3100000 instructions simulated : ctaid=(25,0,0) tid=(101,0,0)
GPGPU-Sim uArch: Shader 11 finished CTA #0 (6846,0), 2 CTAs running
GPGPU-Sim uArch: core: 11, cta: 0 initialized @(6847,0)
GPGPU-Sim uArch: Shader 7 finished CTA #0 (6938,0), 2 CTAs running
GPGPU-Sim uArch: core:  7, cta: 0 initialized @(6939,0)
GPGPU-Sim uArch: Shader 13 finished CTA #0 (6952,0), 2 CTAs running
GPGPU-Sim uArch: core: 13, cta: 0 initialized @(6953,0)
GPGPU-Sim PTX: 3200000 instructions simulated : ctaid=(49,0,0) tid=(449,0,0)
GPGPU-Sim uArch: Shader 14 finished CTA #0 (6957,0), 2 CTAs running
GPGPU-Sim uArch: core: 14, cta: 0 initialized @(6958,0)
GPGPU-Sim uArch: Shader 0 finished CTA #0 (6988,0), 2 CTAs running
GPGPU-Sim uArch: core:  0, cta: 0 initialized @(6989,0)
GPGPU-Sim uArch: Shader 12 finished CTA #0 (6989,0), 2 CTAs running
GPGPU-Sim uArch: core: 12, cta: 0 initialized @(6990,0)
GPGPU-Sim uArch: Shader 1 finished CTA #0 (6991,0), 2 CTAs running
GPGPU-Sim uArch: core:  1, cta: 0 initialized @(6992,0)
GPGPU-Sim uArch: Shader 5 finished CTA #0 (6998,0), 2 CTAs running
GPGPU-Sim uArch: core:  5, cta: 0 initialized @(6999,0)
GPGPU-Sim uArch: cycles simulated: 7000  inst.: 3084650 (ipc=440.7) sim_rate=440664 (inst/sec) elapsed = 0:0:00:07 / Wed Jan 30 06:42:38 2019
GPGPU-Sim uArch: Shader 6 finished CTA #0 (7002,0), 2 CTAs running
GPGPU-Sim uArch: core:  6, cta: 0 initialized @(7003,0)
GPGPU-Sim uArch: Shader 9 finished CTA #0 (7008,0), 2 CTAs running
GPGPU-Sim uArch: core:  9, cta: 0 initialized @(7009,0)
GPGPU-Sim uArch: Shader 2 finished CTA #0 (7086,0), 2 CTAs running
GPGPU-Sim uArch: core:  2, cta: 0 initialized @(7087,0)
GPGPU-Sim PTX: 3300000 instructions simulated : ctaid=(48,0,0) tid=(407,0,0)
GPGPU-Sim PTX: 3400000 instructions simulated : ctaid=(51,0,0) tid=(388,0,0)
GPGPU-Sim uArch: Shader 10 finished CTA #1 (7537,0), 2 CTAs running
GPGPU-Sim uArch: core: 10, cta: 1 initialized @(7538,0)
GPGPU-Sim uArch: Shader 11 finished CTA #1 (7541,0), 2 CTAs running
GPGPU-Sim uArch: core: 11, cta: 1 initialized @(7542,0)
GPGPU-Sim PTX: 3500000 instructions simulated : ctaid=(60,0,0) tid=(97,0,0)
GPGPU-Sim uArch: Shader 14 finished CTA #1 (7590,0), 2 CTAs running
GPGPU-Sim uArch: core: 14, cta: 1 initialized @(7591,0)
GPGPU-Sim uArch: Shader 1 finished CTA #1 (7634,0), 2 CTAs running
GPGPU-Sim uArch: core:  1, cta: 1 initialized @(7635,0)
GPGPU-Sim uArch: Shader 0 finished CTA #1 (7642,0), 2 CTAs running
GPGPU-Sim uArch: core:  0, cta: 1 initialized @(7643,0)
GPGPU-Sim uArch: Shader 9 finished CTA #1 (7660,0), 2 CTAs running
GPGPU-Sim uArch: core:  9, cta: 1 initialized @(7661,0)
GPGPU-Sim uArch: Shader 12 finished CTA #1 (7665,0), 2 CTAs running
GPGPU-Sim uArch: core: 12, cta: 1 initialized @(7666,0)
GPGPU-Sim uArch: Shader 8 finished CTA #1 (7666,0), 2 CTAs running
GPGPU-Sim uArch: core:  8, cta: 1 initialized @(7667,0)
GPGPU-Sim uArch: Shader 3 finished CTA #1 (7672,0), 2 CTAs running
GPGPU-Sim uArch: core:  3, cta: 1 initialized @(7673,0)
GPGPU-Sim uArch: Shader 4 finished CTA #1 (7675,0), 2 CTAs running
GPGPU-Sim uArch: core:  4, cta: 1 initialized @(7676,0)
GPGPU-Sim uArch: Shader 13 finished CTA #1 (7693,0), 2 CTAs running
GPGPU-Sim uArch: core: 13, cta: 1 initialized @(7694,0)
GPGPU-Sim uArch: Shader 7 finished CTA #1 (7708,0), 2 CTAs running
GPGPU-Sim uArch: core:  7, cta: 1 initialized @(7709,0)
GPGPU-Sim uArch: Shader 2 finished CTA #1 (7731,0), 2 CTAs running
GPGPU-Sim uArch: core:  2, cta: 1 initialized @(7732,0)
GPGPU-Sim uArch: Shader 5 finished CTA #1 (7739,0), 2 CTAs running
GPGPU-Sim uArch: core:  5, cta: 1 initialized @(7740,0)
GPGPU-Sim PTX: 3600000 instructions simulated : ctaid=(48,0,0) tid=(93,0,0)
GPGPU-Sim uArch: Shader 6 finished CTA #1 (7756,0), 2 CTAs running
GPGPU-Sim uArch: core:  6, cta: 1 initialized @(7757,0)
GPGPU-Sim PTX: 3700000 instructions simulated : ctaid=(39,0,0) tid=(431,0,0)
GPGPU-Sim PTX: 3800000 instructions simulated : ctaid=(70,0,0) tid=(458,0,0)
GPGPU-Sim uArch: cycles simulated: 8000  inst.: 3641059 (ipc=455.1) sim_rate=455132 (inst/sec) elapsed = 0:0:00:08 / Wed Jan 30 06:42:39 2019
GPGPU-Sim uArch: Shader 1 finished CTA #2 (8003,0), 2 CTAs running
GPGPU-Sim uArch: core:  1, cta: 2 initialized @(8004,0)
GPGPU-Sim PTX: 3900000 instructions simulated : ctaid=(37,0,0) tid=(194,0,0)
GPGPU-Sim uArch: Shader 9 finished CTA #2 (8240,0), 2 CTAs running
GPGPU-Sim uArch: core:  9, cta: 2 initialized @(8241,0)
GPGPU-Sim uArch: Shader 4 finished CTA #2 (8273,0), 2 CTAs running
GPGPU-Sim uArch: core:  4, cta: 2 initialized @(8274,0)
GPGPU-Sim PTX: 4000000 instructions simulated : ctaid=(67,0,0) tid=(219,0,0)
GPGPU-Sim uArch: cycles simulated: 8500  inst.: 3864881 (ipc=454.7) sim_rate=429431 (inst/sec) elapsed = 0:0:00:09 / Wed Jan 30 06:42:40 2019
GPGPU-Sim uArch: Shader 3 finished CTA #2 (8568,0), 2 CTAs running
GPGPU-Sim uArch: core:  3, cta: 2 initialized @(8569,0)
GPGPU-Sim PTX: 4100000 instructions simulated : ctaid=(58,0,0) tid=(187,0,0)
GPGPU-Sim PTX: 4200000 instructions simulated : ctaid=(70,0,0) tid=(427,0,0)
GPGPU-Sim uArch: Shader 12 finished CTA #2 (8929,0), 2 CTAs running
GPGPU-Sim uArch: core: 12, cta: 2 initialized @(8930,0)
GPGPU-Sim uArch: Shader 10 finished CTA #2 (8958,0), 2 CTAs running
GPGPU-Sim uArch: core: 10, cta: 2 initialized @(8959,0)
GPGPU-Sim uArch: Shader 5 finished CTA #2 (9009,0), 2 CTAs running
GPGPU-Sim uArch: core:  5, cta: 2 initialized @(9010,0)
GPGPU-Sim uArch: Shader 7 finished CTA #2 (9015,0), 2 CTAs running
GPGPU-Sim uArch: core:  7, cta: 2 initialized @(9016,0)
GPGPU-Sim uArch: Shader 8 finished CTA #2 (9018,0), 2 CTAs running
GPGPU-Sim uArch: core:  8, cta: 2 initialized @(9019,0)
GPGPU-Sim uArch: Shader 11 finished CTA #2 (9024,0), 2 CTAs running
GPGPU-Sim uArch: core: 11, cta: 2 initialized @(9025,0)
GPGPU-Sim uArch: Shader 0 finished CTA #2 (9033,0), 2 CTAs running
GPGPU-Sim uArch: core:  0, cta: 2 initialized @(9034,0)
GPGPU-Sim uArch: Shader 2 finished CTA #2 (9036,0), 2 CTAs running
GPGPU-Sim uArch: core:  2, cta: 2 initialized @(9037,0)
GPGPU-Sim uArch: Shader 14 finished CTA #2 (9038,0), 2 CTAs running
GPGPU-Sim uArch: core: 14, cta: 2 initialized @(9039,0)
GPGPU-Sim uArch: Shader 13 finished CTA #2 (9048,0), 2 CTAs running
GPGPU-Sim uArch: core: 13, cta: 2 initialized @(9049,0)
GPGPU-Sim PTX: 4300000 instructions simulated : ctaid=(75,0,0) tid=(451,0,0)
GPGPU-Sim uArch: Shader 6 finished CTA #2 (9085,0), 2 CTAs running
GPGPU-Sim uArch: core:  6, cta: 2 initialized @(9086,0)
GPGPU-Sim PTX: 4400000 instructions simulated : ctaid=(81,0,0) tid=(395,0,0)
GPGPU-Sim PTX: 4500000 instructions simulated : ctaid=(64,0,0) tid=(143,0,0)
GPGPU-Sim PTX: 4600000 instructions simulated : ctaid=(49,0,0) tid=(440,0,0)
GPGPU-Sim uArch: cycles simulated: 9500  inst.: 4402249 (ipc=463.4) sim_rate=440224 (inst/sec) elapsed = 0:0:00:10 / Wed Jan 30 06:42:41 2019
GPGPU-Sim PTX: 4700000 instructions simulated : ctaid=(51,0,0) tid=(246,0,0)
GPGPU-Sim PTX: 4800000 instructions simulated : ctaid=(53,0,0) tid=(294,0,0)
GPGPU-Sim PTX: 4900000 instructions simulated : ctaid=(64,0,0) tid=(491,0,0)
GPGPU-Sim uArch: cycles simulated: 10000  inst.: 4723947 (ipc=472.4) sim_rate=429449 (inst/sec) elapsed = 0:0:00:11 / Wed Jan 30 06:42:42 2019
GPGPU-Sim PTX: 5000000 instructions simulated : ctaid=(60,0,0) tid=(71,0,0)
GPGPU-Sim PTX: 5100000 instructions simulated : ctaid=(80,0,0) tid=(311,0,0)
GPGPU-Sim PTX: 5200000 instructions simulated : ctaid=(50,0,0) tid=(0,0,0)
GPGPU-Sim PTX: 5300000 instructions simulated : ctaid=(47,0,0) tid=(72,0,0)
GPGPU-Sim PTX: 5400000 instructions simulated : ctaid=(57,0,0) tid=(182,0,0)
GPGPU-Sim uArch: cycles simulated: 11000  inst.: 5246138 (ipc=476.9) sim_rate=437178 (inst/sec) elapsed = 0:0:00:12 / Wed Jan 30 06:42:43 2019
GPGPU-Sim PTX: 5500000 instructions simulated : ctaid=(78,0,0) tid=(46,0,0)
GPGPU-Sim PTX: 5600000 instructions simulated : ctaid=(79,0,0) tid=(375,0,0)
GPGPU-Sim PTX: 5700000 instructions simulated : ctaid=(66,0,0) tid=(395,0,0)
GPGPU-Sim PTX: 5800000 instructions simulated : ctaid=(49,0,0) tid=(391,0,0)
GPGPU-Sim uArch: Shader 4 finished CTA #0 (11636,0), 2 CTAs running
GPGPU-Sim uArch: core:  4, cta: 0 initialized @(11637,0)
GPGPU-Sim PTX: 5900000 instructions simulated : ctaid=(78,0,0) tid=(69,0,0)
GPGPU-Sim uArch: Shader 11 finished CTA #0 (11770,0), 2 CTAs running
GPGPU-Sim uArch: core: 11, cta: 0 initialized @(11771,0)
GPGPU-Sim uArch: Shader 1 finished CTA #0 (11788,0), 2 CTAs running
GPGPU-Sim uArch: core:  1, cta: 0 initialized @(11789,0)
GPGPU-Sim uArch: Shader 14 finished CTA #0 (11845,0), 2 CTAs running
GPGPU-Sim uArch: core: 14, cta: 0 initialized @(11846,0)
GPGPU-Sim uArch: Shader 3 finished CTA #0 (11902,0), 2 CTAs running
GPGPU-Sim uArch: core:  3, cta: 0 initialized @(11903,0)
GPGPU-Sim uArch: Shader 9 finished CTA #0 (11917,0), 2 CTAs running
GPGPU-Sim uArch: core:  9, cta: 0 initialized @(11918,0)
GPGPU-Sim PTX: 6000000 instructions simulated : ctaid=(74,0,0) tid=(365,0,0)
GPGPU-Sim uArch: cycles simulated: 12000  inst.: 5777170 (ipc=481.4) sim_rate=444397 (inst/sec) elapsed = 0:0:00:13 / Wed Jan 30 06:42:44 2019
GPGPU-Sim PTX: 6100000 instructions simulated : ctaid=(75,0,0) tid=(285,0,0)
GPGPU-Sim PTX: 6200000 instructions simulated : ctaid=(90,0,0) tid=(52,0,0)
GPGPU-Sim uArch: Shader 12 finished CTA #0 (12331,0), 2 CTAs running
GPGPU-Sim uArch: core: 12, cta: 0 initialized @(12332,0)
GPGPU-Sim uArch: Shader 10 finished CTA #0 (12337,0), 2 CTAs running
GPGPU-Sim uArch: core: 10, cta: 0 initialized @(12338,0)
GPGPU-Sim uArch: Shader 7 finished CTA #0 (12421,0), 2 CTAs running
GPGPU-Sim uArch: core:  7, cta: 0 initialized @(12422,0)
GPGPU-Sim PTX: 6300000 instructions simulated : ctaid=(78,0,0) tid=(137,0,0)
GPGPU-Sim uArch: Shader 13 finished CTA #0 (12514,0), 2 CTAs running
GPGPU-Sim uArch: core: 13, cta: 0 initialized @(12515,0)
GPGPU-Sim uArch: Shader 6 finished CTA #0 (12556,0), 2 CTAs running
GPGPU-Sim uArch: core:  6, cta: 0 initialized @(12557,0)
GPGPU-Sim uArch: Shader 8 finished CTA #0 (12573,0), 2 CTAs running
GPGPU-Sim uArch: core:  8, cta: 0 initialized @(12574,0)
GPGPU-Sim PTX: 6400000 instructions simulated : ctaid=(95,0,0) tid=(27,0,0)
GPGPU-Sim uArch: Shader 5 finished CTA #0 (12708,0), 2 CTAs running
GPGPU-Sim uArch: core:  5, cta: 0 initialized @(12709,0)
GPGPU-Sim PTX: 6500000 instructions simulated : ctaid=(75,0,0) tid=(272,0,0)
GPGPU-Sim uArch: Shader 2 finished CTA #0 (12789,0), 2 CTAs running
GPGPU-Sim uArch: core:  2, cta: 0 initialized @(12790,0)
GPGPU-Sim uArch: Shader 0 finished CTA #0 (12790,0), 2 CTAs running
GPGPU-Sim uArch: core:  0, cta: 0 initialized @(12791,0)
GPGPU-Sim PTX: 6600000 instructions simulated : ctaid=(97,0,0) tid=(230,0,0)
GPGPU-Sim uArch: cycles simulated: 13000  inst.: 6355983 (ipc=488.9) sim_rate=453998 (inst/sec) elapsed = 0:0:00:14 / Wed Jan 30 06:42:45 2019
GPGPU-Sim uArch: Shader 1 finished CTA #1 (13077,0), 2 CTAs running
GPGPU-Sim uArch: core:  1, cta: 1 initialized @(13078,0)
GPGPU-Sim PTX: 6700000 instructions simulated : ctaid=(77,0,0) tid=(500,0,0)
GPGPU-Sim PTX: 6800000 instructions simulated : ctaid=(96,0,0) tid=(157,0,0)
GPGPU-Sim uArch: Shader 4 finished CTA #1 (13281,0), 2 CTAs running
GPGPU-Sim uArch: core:  4, cta: 1 initialized @(13282,0)
GPGPU-Sim uArch: Shader 11 finished CTA #1 (13314,0), 2 CTAs running
GPGPU-Sim uArch: core: 11, cta: 1 initialized @(13315,0)
GPGPU-Sim uArch: Shader 9 finished CTA #1 (13347,0), 2 CTAs running
GPGPU-Sim uArch: core:  9, cta: 1 initialized @(13348,0)
GPGPU-Sim uArch: Shader 3 finished CTA #1 (13435,0), 2 CTAs running
GPGPU-Sim uArch: core:  3, cta: 1 initialized @(13436,0)
GPGPU-Sim PTX: 6900000 instructions simulated : ctaid=(71,0,0) tid=(102,0,0)
GPGPU-Sim uArch: cycles simulated: 13500  inst.: 6640449 (ipc=491.9) sim_rate=442696 (inst/sec) elapsed = 0:0:00:15 / Wed Jan 30 06:42:46 2019
GPGPU-Sim uArch: Shader 10 finished CTA #1 (13518,0), 2 CTAs running
GPGPU-Sim uArch: core: 10, cta: 1 initialized @(13519,0)
GPGPU-Sim uArch: Shader 14 finished CTA #1 (13542,0), 2 CTAs running
GPGPU-Sim uArch: core: 14, cta: 1 initialized @(13543,0)
GPGPU-Sim uArch: Shader 8 finished CTA #1 (13561,0), 2 CTAs running
GPGPU-Sim uArch: core:  8, cta: 1 initialized @(13562,0)
GPGPU-Sim PTX: 7000000 instructions simulated : ctaid=(109,0,0) tid=(73,0,0)
GPGPU-Sim uArch: Shader 7 finished CTA #1 (13721,0), 2 CTAs running
GPGPU-Sim uArch: core:  7, cta: 1 initialized @(13722,0)
GPGPU-Sim uArch: Shader 13 finished CTA #1 (13733,0), 2 CTAs running
GPGPU-Sim uArch: core: 13, cta: 1 initialized @(13734,0)
GPGPU-Sim uArch: Shader 0 finished CTA #1 (13737,0), 2 CTAs running
GPGPU-Sim uArch: core:  0, cta: 1 initialized @(13738,0)
GPGPU-Sim PTX: 7100000 instructions simulated : ctaid=(92,0,0) tid=(197,0,0)
GPGPU-Sim uArch: Shader 12 finished CTA #1 (13859,0), 2 CTAs running
GPGPU-Sim uArch: core: 12, cta: 1 initialized @(13860,0)
GPGPU-Sim PTX: 7200000 instructions simulated : ctaid=(86,0,0) tid=(316,0,0)
GPGPU-Sim uArch: Shader 6 finished CTA #1 (13976,0), 2 CTAs running
GPGPU-Sim uArch: core:  6, cta: 1 initialized @(13977,0)
GPGPU-Sim uArch: cycles simulated: 14000  inst.: 6953040 (ipc=496.6) sim_rate=434565 (inst/sec) elapsed = 0:0:00:16 / Wed Jan 30 06:42:47 2019
GPGPU-Sim PTX: 7300000 instructions simulated : ctaid=(99,0,0) tid=(481,0,0)
GPGPU-Sim uArch: Shader 2 finished CTA #1 (14079,0), 2 CTAs running
GPGPU-Sim uArch: core:  2, cta: 1 initialized @(14080,0)
GPGPU-Sim uArch: Shader 5 finished CTA #1 (14120,0), 2 CTAs running
GPGPU-Sim uArch: core:  5, cta: 1 initialized @(14121,0)
GPGPU-Sim PTX: 7400000 instructions simulated : ctaid=(81,0,0) tid=(256,0,0)
GPGPU-Sim PTX: 7500000 instructions simulated : ctaid=(110,0,0) tid=(204,0,0)
GPGPU-Sim PTX: 7600000 instructions simulated : ctaid=(104,0,0) tid=(182,0,0)
GPGPU-Sim uArch: Shader 9 finished CTA #2 (14519,0), 2 CTAs running
GPGPU-Sim uArch: core:  9, cta: 2 initialized @(14520,0)
GPGPU-Sim uArch: Shader 4 finished CTA #2 (14632,0), 2 CTAs running
GPGPU-Sim uArch: core:  4, cta: 2 initialized @(14633,0)
GPGPU-Sim uArch: Shader 1 finished CTA #2 (14633,0), 2 CTAs running
GPGPU-Sim uArch: core:  1, cta: 2 initialized @(14634,0)
GPGPU-Sim PTX: 7700000 instructions simulated : ctaid=(84,0,0) tid=(338,0,0)
GPGPU-Sim PTX: 7800000 instructions simulated : ctaid=(119,0,0) tid=(250,0,0)
GPGPU-Sim uArch: Shader 11 finished CTA #2 (14902,0), 2 CTAs running
GPGPU-Sim uArch: core: 11, cta: 2 initialized @(14903,0)
GPGPU-Sim uArch: Shader 3 finished CTA #2 (14906,0), 2 CTAs running
GPGPU-Sim uArch: core:  3, cta: 2 initialized @(14907,0)
GPGPU-Sim PTX: 7900000 instructions simulated : ctaid=(89,0,0) tid=(88,0,0)
GPGPU-Sim uArch: Shader 14 finished CTA #2 (14988,0), 2 CTAs running
GPGPU-Sim uArch: core: 14, cta: 2 initialized @(14989,0)
GPGPU-Sim uArch: cycles simulated: 15000  inst.: 7609371 (ipc=507.3) sim_rate=447610 (inst/sec) elapsed = 0:0:00:17 / Wed Jan 30 06:42:48 2019
GPGPU-Sim PTX: 8000000 instructions simulated : ctaid=(81,0,0) tid=(396,0,0)
GPGPU-Sim uArch: Shader 12 finished CTA #2 (15220,0), 2 CTAs running
GPGPU-Sim uArch: core: 12, cta: 2 initialized @(15221,0)
GPGPU-Sim PTX: 8100000 instructions simulated : ctaid=(97,0,0) tid=(349,0,0)
GPGPU-Sim uArch: Shader 10 finished CTA #2 (15249,0), 2 CTAs running
GPGPU-Sim uArch: core: 10, cta: 2 initialized @(15250,0)
GPGPU-Sim uArch: Shader 5 finished CTA #2 (15399,0), 2 CTAs running
GPGPU-Sim uArch: core:  5, cta: 2 initialized @(15400,0)
GPGPU-Sim PTX: 8200000 instructions simulated : ctaid=(107,0,0) tid=(155,0,0)
GPGPU-Sim uArch: Shader 0 finished CTA #2 (15446,0), 2 CTAs running
GPGPU-Sim uArch: core:  0, cta: 2 initialized @(15447,0)
GPGPU-Sim uArch: Shader 8 finished CTA #2 (15469,0), 2 CTAs running
GPGPU-Sim uArch: core:  8, cta: 2 initialized @(15470,0)
GPGPU-Sim uArch: cycles simulated: 15500  inst.: 7893230 (ipc=509.2) sim_rate=438512 (inst/sec) elapsed = 0:0:00:18 / Wed Jan 30 06:42:49 2019
GPGPU-Sim uArch: Shader 2 finished CTA #2 (15508,0), 2 CTAs running
GPGPU-Sim uArch: core:  2, cta: 2 initialized @(15509,0)
GPGPU-Sim uArch: Shader 13 finished CTA #2 (15529,0), 2 CTAs running
GPGPU-Sim uArch: core: 13, cta: 2 initialized @(15530,0)
GPGPU-Sim uArch: Shader 7 finished CTA #2 (15543,0), 2 CTAs running
GPGPU-Sim uArch: core:  7, cta: 2 initialized @(15544,0)
GPGPU-Sim PTX: 8300000 instructions simulated : ctaid=(92,0,0) tid=(151,0,0)
GPGPU-Sim uArch: Shader 6 finished CTA #2 (15609,0), 2 CTAs running
GPGPU-Sim uArch: core:  6, cta: 2 initialized @(15610,0)
GPGPU-Sim PTX: 8400000 instructions simulated : ctaid=(99,0,0) tid=(446,0,0)
GPGPU-Sim PTX: 8500000 instructions simulated : ctaid=(106,0,0) tid=(398,0,0)
GPGPU-Sim PTX: 8600000 instructions simulated : ctaid=(127,0,0) tid=(233,0,0)
GPGPU-Sim PTX: 8700000 instructions simulated : ctaid=(96,0,0) tid=(376,0,0)
GPGPU-Sim PTX: 8800000 instructions simulated : ctaid=(114,0,0) tid=(71,0,0)
GPGPU-Sim uArch: cycles simulated: 16500  inst.: 8484096 (ipc=514.2) sim_rate=446531 (inst/sec) elapsed = 0:0:00:19 / Wed Jan 30 06:42:50 2019
GPGPU-Sim PTX: 8900000 instructions simulated : ctaid=(94,0,0) tid=(88,0,0)
GPGPU-Sim PTX: 9000000 instructions simulated : ctaid=(97,0,0) tid=(364,0,0)
GPGPU-Sim uArch: Shader 9 finished CTA #0 (16868,0), 2 CTAs running
GPGPU-Sim uArch: core:  9, cta: 0 initialized @(16869,0)
GPGPU-Sim PTX: 9100000 instructions simulated : ctaid=(118,0,0) tid=(238,0,0)
GPGPU-Sim uArch: Shader 1 finished CTA #0 (16925,0), 2 CTAs running
GPGPU-Sim uArch: core:  1, cta: 0 initialized @(16926,0)
GPGPU-Sim uArch: Shader 4 finished CTA #0 (16934,0), 2 CTAs running
GPGPU-Sim uArch: core:  4, cta: 0 initialized @(16935,0)
GPGPU-Sim uArch: cycles simulated: 17000  inst.: 8765474 (ipc=515.6) sim_rate=438273 (inst/sec) elapsed = 0:0:00:20 / Wed Jan 30 06:42:51 2019
GPGPU-Sim PTX: 9200000 instructions simulated : ctaid=(125,0,0) tid=(177,0,0)
GPGPU-Sim uArch: Shader 14 finished CTA #0 (17093,0), 2 CTAs running
GPGPU-Sim uArch: core: 14, cta: 0 initialized @(17094,0)
GPGPU-Sim uArch: Shader 11 finished CTA #0 (17122,0), 2 CTAs running
GPGPU-Sim uArch: core: 11, cta: 0 initialized @(17123,0)
GPGPU-Sim uArch: Shader 3 finished CTA #0 (17166,0), 2 CTAs running
GPGPU-Sim uArch: core:  3, cta: 0 initialized @(17167,0)
GPGPU-Sim PTX: 9300000 instructions simulated : ctaid=(122,0,0) tid=(331,0,0)
GPGPU-Sim PTX: 9400000 instructions simulated : ctaid=(101,0,0) tid=(229,0,0)
GPGPU-Sim PTX: 9500000 instructions simulated : ctaid=(123,0,0) tid=(446,0,0)
GPGPU-Sim uArch: Shader 7 finished CTA #0 (17669,0), 2 CTAs running
GPGPU-Sim uArch: core:  7, cta: 0 initialized @(17670,0)
GPGPU-Sim PTX: 9600000 instructions simulated : ctaid=(127,0,0) tid=(222,0,0)
GPGPU-Sim uArch: Shader 10 finished CTA #0 (17851,0), 2 CTAs running
GPGPU-Sim uArch: core: 10, cta: 0 initialized @(17852,0)
GPGPU-Sim uArch: Shader 5 finished CTA #0 (17860,0), 2 CTAs running
GPGPU-Sim uArch: core:  5, cta: 0 initialized @(17861,0)
GPGPU-Sim PTX: 9700000 instructions simulated : ctaid=(114,0,0) tid=(243,0,0)
GPGPU-Sim uArch: Shader 0 finished CTA #0 (17956,0), 2 CTAs running
GPGPU-Sim uArch: core:  0, cta: 0 initialized @(17957,0)
GPGPU-Sim uArch: cycles simulated: 18000  inst.: 9328568 (ipc=518.3) sim_rate=444217 (inst/sec) elapsed = 0:0:00:21 / Wed Jan 30 06:42:52 2019
GPGPU-Sim uArch: Shader 12 finished CTA #0 (18009,0), 2 CTAs running
GPGPU-Sim uArch: core: 12, cta: 0 initialized @(18010,0)
GPGPU-Sim uArch: Shader 13 finished CTA #0 (18051,0), 2 CTAs running
GPGPU-Sim uArch: core: 13, cta: 0 initialized @(18052,0)
GPGPU-Sim uArch: Shader 6 finished CTA #0 (18059,0), 2 CTAs running
GPGPU-Sim uArch: core:  6, cta: 0 initialized @(18060,0)
GPGPU-Sim uArch: Shader 8 finished CTA #0 (18060,0), 2 CTAs running
GPGPU-Sim uArch: core:  8, cta: 0 initialized @(18061,0)
GPGPU-Sim uArch: Shader 2 finished CTA #0 (18083,0), 2 CTAs running
GPGPU-Sim uArch: core:  2, cta: 0 initialized @(18084,0)
GPGPU-Sim PTX: 9800000 instructions simulated : ctaid=(131,0,0) tid=(398,0,0)
GPGPU-Sim PTX: 9900000 instructions simulated : ctaid=(146,0,0) tid=(153,0,0)
GPGPU-Sim PTX: 10000000 instructions simulated : ctaid=(138,0,0) tid=(416,0,0)
GPGPU-Sim uArch: cycles simulated: 18500  inst.: 9633774 (ipc=520.7) sim_rate=437898 (inst/sec) elapsed = 0:0:00:22 / Wed Jan 30 06:42:53 2019
GPGPU-Sim PTX: 10100000 instructions simulated : ctaid=(106,0,0) tid=(345,0,0)
GPGPU-Sim PTX: 10200000 instructions simulated : ctaid=(147,0,0) tid=(246,0,0)
GPGPU-Sim uArch: Shader 4 finished CTA #1 (18814,0), 2 CTAs running
GPGPU-Sim uArch: core:  4, cta: 1 initialized @(18815,0)
GPGPU-Sim uArch: Shader 1 finished CTA #1 (18821,0), 2 CTAs running
GPGPU-Sim uArch: core:  1, cta: 1 initialized @(18822,0)
GPGPU-Sim PTX: 10300000 instructions simulated : ctaid=(118,0,0) tid=(72,0,0)
GPGPU-Sim uArch: cycles simulated: 19000  inst.: 9924554 (ipc=522.3) sim_rate=431502 (inst/sec) elapsed = 0:0:00:23 / Wed Jan 30 06:42:54 2019
GPGPU-Sim uArch: Shader 10 finished CTA #1 (19050,0), 2 CTAs running
GPGPU-Sim uArch: core: 10, cta: 1 initialized @(19051,0)
GPGPU-Sim uArch: Shader 9 finished CTA #1 (19062,0), 2 CTAs running
GPGPU-Sim uArch: core:  9, cta: 1 initialized @(19063,0)
GPGPU-Sim PTX: 10400000 instructions simulated : ctaid=(152,0,0) tid=(178,0,0)
GPGPU-Sim uArch: Shader 3 finished CTA #1 (19106,0), 2 CTAs running
GPGPU-Sim uArch: core:  3, cta: 1 initialized @(19107,0)
GPGPU-Sim uArch: Shader 11 finished CTA #1 (19167,0), 2 CTAs running
GPGPU-Sim uArch: core: 11, cta: 1 initialized @(19168,0)
GPGPU-Sim uArch: Shader 14 finished CTA #1 (19220,0), 2 CTAs running
GPGPU-Sim uArch: core: 14, cta: 1 initialized @(19221,0)
GPGPU-Sim PTX: 10500000 instructions simulated : ctaid=(151,0,0) tid=(234,0,0)
GPGPU-Sim uArch: Shader 8 finished CTA #1 (19271,0), 2 CTAs running
GPGPU-Sim uArch: core:  8, cta: 1 initialized @(19272,0)
GPGPU-Sim PTX: 10600000 instructions simulated : ctaid=(156,0,0) tid=(404,0,0)
GPGPU-Sim uArch: Shader 12 finished CTA #1 (19403,0), 2 CTAs running
GPGPU-Sim uArch: core: 12, cta: 1 initialized @(19404,0)
GPGPU-Sim uArch: Shader 7 finished CTA #1 (19439,0), 2 CTAs running
GPGPU-Sim uArch: core:  7, cta: 1 initialized @(19440,0)
GPGPU-Sim uArch: Shader 0 finished CTA #1 (19459,0), 2 CTAs running
GPGPU-Sim uArch: core:  0, cta: 1 initialized @(19460,0)
GPGPU-Sim uArch: cycles simulated: 19500  inst.: 10216995 (ipc=523.9) sim_rate=425708 (inst/sec) elapsed = 0:0:00:24 / Wed Jan 30 06:42:55 2019
GPGPU-Sim uArch: Shader 13 finished CTA #1 (19518,0), 2 CTAs running
GPGPU-Sim uArch: core: 13, cta: 1 initialized @(19519,0)
GPGPU-Sim PTX: 10700000 instructions simulated : ctaid=(155,0,0) tid=(416,0,0)
GPGPU-Sim uArch: Shader 2 finished CTA #1 (19615,0), 2 CTAs running
GPGPU-Sim uArch: core:  2, cta: 1 initialized @(19616,0)
GPGPU-Sim uArch: Shader 6 finished CTA #1 (19648,0), 2 CTAs running
GPGPU-Sim uArch: core:  6, cta: 1 initialized @(19649,0)
GPGPU-Sim uArch: Shader 5 finished CTA #1 (19681,0), 2 CTAs running
GPGPU-Sim uArch: core:  5, cta: 1 initialized @(19682,0)
GPGPU-Sim PTX: 10800000 instructions simulated : ctaid=(142,0,0) tid=(487,0,0)
GPGPU-Sim PTX: 10900000 instructions simulated : ctaid=(136,0,0) tid=(188,0,0)
GPGPU-Sim PTX: 11000000 instructions simulated : ctaid=(146,0,0) tid=(147,0,0)
GPGPU-Sim PTX: 11100000 instructions simulated : ctaid=(137,0,0) tid=(279,0,0)
GPGPU-Sim PTX: 11200000 instructions simulated : ctaid=(124,0,0) tid=(466,0,0)
GPGPU-Sim PTX: 11300000 instructions simulated : ctaid=(155,0,0) tid=(467,0,0)
GPGPU-Sim uArch: cycles simulated: 20500  inst.: 10838830 (ipc=528.7) sim_rate=433553 (inst/sec) elapsed = 0:0:00:25 / Wed Jan 30 06:42:56 2019
GPGPU-Sim uArch: Shader 9 finished CTA #2 (20593,0), 2 CTAs running
GPGPU-Sim uArch: core:  9, cta: 2 initialized @(20594,0)
GPGPU-Sim PTX: 11400000 instructions simulated : ctaid=(125,0,0) tid=(187,0,0)
GPGPU-Sim uArch: Shader 4 finished CTA #2 (20662,0), 2 CTAs running
GPGPU-Sim uArch: core:  4, cta: 2 initialized @(20663,0)
GPGPU-Sim uArch: Shader 1 finished CTA #2 (20683,0), 2 CTAs running
GPGPU-Sim uArch: core:  1, cta: 2 initialized @(20684,0)
GPGPU-Sim PTX: 11500000 instructions simulated : ctaid=(140,0,0) tid=(253,0,0)
GPGPU-Sim uArch: Shader 3 finished CTA #2 (20818,0), 2 CTAs running
GPGPU-Sim uArch: core:  3, cta: 2 initialized @(20819,0)
GPGPU-Sim uArch: Shader 11 finished CTA #2 (20840,0), 2 CTAs running
GPGPU-Sim uArch: core: 11, cta: 2 initialized @(20841,0)
GPGPU-Sim uArch: Shader 14 finished CTA #2 (20881,0), 2 CTAs running
GPGPU-Sim uArch: core: 14, cta: 2 initialized @(20882,0)
GPGPU-Sim PTX: 11600000 instructions simulated : ctaid=(163,0,0) tid=(390,0,0)
GPGPU-Sim uArch: cycles simulated: 21000  inst.: 11131717 (ipc=530.1) sim_rate=428142 (inst/sec) elapsed = 0:0:00:26 / Wed Jan 30 06:42:57 2019
GPGPU-Sim uArch: Shader 12 finished CTA #2 (21101,0), 2 CTAs running
GPGPU-Sim uArch: core: 12, cta: 2 initialized @(21102,0)
GPGPU-Sim PTX: 11700000 instructions simulated : ctaid=(162,0,0) tid=(203,0,0)
GPGPU-Sim uArch: Shader 13 finished CTA #2 (21274,0), 2 CTAs running
GPGPU-Sim uArch: core: 13, cta: 2 initialized @(21275,0)
GPGPU-Sim uArch: Shader 10 finished CTA #2 (21311,0), 2 CTAs running
GPGPU-Sim uArch: core: 10, cta: 2 initialized @(21312,0)
GPGPU-Sim PTX: 11800000 instructions simulated : ctaid=(139,0,0) tid=(460,0,0)
GPGPU-Sim uArch: Shader 0 finished CTA #2 (21319,0), 2 CTAs running
GPGPU-Sim uArch: core:  0, cta: 2 initialized @(21320,0)
GPGPU-Sim uArch: Shader 5 finished CTA #2 (21453,0), 2 CTAs running
GPGPU-Sim uArch: core:  5, cta: 2 initialized @(21454,0)
GPGPU-Sim PTX: 11900000 instructions simulated : ctaid=(137,0,0) tid=(343,0,0)
GPGPU-Sim uArch: cycles simulated: 21500  inst.: 11424112 (ipc=531.4) sim_rate=423115 (inst/sec) elapsed = 0:0:00:27 / Wed Jan 30 06:42:58 2019
GPGPU-Sim uArch: Shader 8 finished CTA #2 (21511,0), 2 CTAs running
GPGPU-Sim uArch: core:  8, cta: 2 initialized @(21512,0)
GPGPU-Sim uArch: Shader 7 finished CTA #2 (21525,0), 2 CTAs running
GPGPU-Sim uArch: core:  7, cta: 2 initialized @(21526,0)
GPGPU-Sim uArch: Shader 2 finished CTA #2 (21557,0), 2 CTAs running
GPGPU-Sim uArch: core:  2, cta: 2 initialized @(21558,0)
GPGPU-Sim uArch: Shader 6 finished CTA #2 (21582,0), 2 CTAs running
GPGPU-Sim uArch: core:  6, cta: 2 initialized @(21583,0)
GPGPU-Sim PTX: 12000000 instructions simulated : ctaid=(153,0,0) tid=(412,0,0)
GPGPU-Sim PTX: 12100000 instructions simulated : ctaid=(154,0,0) tid=(262,0,0)
GPGPU-Sim PTX: 12200000 instructions simulated : ctaid=(162,0,0) tid=(16,0,0)
GPGPU-Sim uArch: cycles simulated: 22000  inst.: 11715430 (ipc=532.5) sim_rate=418408 (inst/sec) elapsed = 0:0:00:28 / Wed Jan 30 06:42:59 2019
GPGPU-Sim PTX: 12300000 instructions simulated : ctaid=(167,0,0) tid=(279,0,0)
GPGPU-Sim PTX: 12400000 instructions simulated : ctaid=(179,0,0) tid=(202,0,0)
GPGPU-Sim uArch: Shader 1 finished CTA #0 (22417,0), 2 CTAs running
GPGPU-Sim uArch: core:  1, cta: 0 initialized @(22418,0)
GPGPU-Sim PTX: 12500000 instructions simulated : ctaid=(164,0,0) tid=(122,0,0)
GPGPU-Sim uArch: Shader 9 finished CTA #0 (22541,0), 2 CTAs running
GPGPU-Sim uArch: core:  9, cta: 0 initialized @(22542,0)
GPGPU-Sim PTX: 12600000 instructions simulated : ctaid=(180,0,0) tid=(113,0,0)
GPGPU-Sim uArch: Shader 11 finished CTA #0 (22663,0), 2 CTAs running
GPGPU-Sim uArch: core: 11, cta: 0 initialized @(22664,0)
GPGPU-Sim uArch: Shader 4 finished CTA #0 (22766,0), 2 CTAs running
GPGPU-Sim uArch: core:  4, cta: 0 initialized @(22767,0)
GPGPU-Sim PTX: 12700000 instructions simulated : ctaid=(147,0,0) tid=(254,0,0)
GPGPU-Sim uArch: Shader 3 finished CTA #0 (22788,0), 2 CTAs running
GPGPU-Sim uArch: core:  3, cta: 0 initialized @(22789,0)
GPGPU-Sim uArch: Shader 14 finished CTA #0 (22824,0), 2 CTAs running
GPGPU-Sim uArch: core: 14, cta: 0 initialized @(22825,0)
GPGPU-Sim PTX: 12800000 instructions simulated : ctaid=(167,0,0) tid=(123,0,0)
GPGPU-Sim uArch: cycles simulated: 23000  inst.: 12303437 (ipc=534.9) sim_rate=424256 (inst/sec) elapsed = 0:0:00:29 / Wed Jan 30 06:43:00 2019
GPGPU-Sim PTX: 12900000 instructions simulated : ctaid=(173,0,0) tid=(274,0,0)
GPGPU-Sim uArch: Shader 10 finished CTA #0 (23209,0), 2 CTAs running
GPGPU-Sim uArch: core: 10, cta: 0 initialized @(23210,0)
GPGPU-Sim PTX: 13000000 instructions simulated : ctaid=(143,0,0) tid=(296,0,0)
GPGPU-Sim uArch: Shader 7 finished CTA #0 (23318,0), 2 CTAs running
GPGPU-Sim uArch: core:  7, cta: 0 initialized @(23319,0)
GPGPU-Sim PTX: 13100000 instructions simulated : ctaid=(170,0,0) tid=(222,0,0)
GPGPU-Sim uArch: Shader 8 finished CTA #0 (23494,0), 2 CTAs running
GPGPU-Sim uArch: core:  8, cta: 0 initialized @(23495,0)
GPGPU-Sim uArch: Shader 12 finished CTA #0 (23495,0), 2 CTAs running
GPGPU-Sim uArch: core: 12, cta: 0 initialized @(23496,0)
GPGPU-Sim uArch: cycles simulated: 23500  inst.: 12579210 (ipc=535.3) sim_rate=419307 (inst/sec) elapsed = 0:0:00:30 / Wed Jan 30 06:43:01 2019
GPGPU-Sim uArch: Shader 2 finished CTA #0 (23587,0), 2 CTAs running
GPGPU-Sim uArch: core:  2, cta: 0 initialized @(23588,0)
GPGPU-Sim uArch: Shader 13 finished CTA #0 (23600,0), 2 CTAs running
GPGPU-Sim uArch: core: 13, cta: 0 initialized @(23601,0)
GPGPU-Sim PTX: 13200000 instructions simulated : ctaid=(171,0,0) tid=(464,0,0)
GPGPU-Sim uArch: Shader 0 finished CTA #0 (23636,0), 2 CTAs running
GPGPU-Sim uArch: core:  0, cta: 0 initialized @(23637,0)
GPGPU-Sim uArch: Shader 6 finished CTA #0 (23641,0), 2 CTAs running
GPGPU-Sim uArch: core:  6, cta: 0 initialized @(23642,0)
GPGPU-Sim uArch: Shader 5 finished CTA #0 (23645,0), 2 CTAs running
GPGPU-Sim uArch: core:  5, cta: 0 initialized @(23646,0)
GPGPU-Sim PTX: 13300000 instructions simulated : ctaid=(150,0,0) tid=(484,0,0)
GPGPU-Sim PTX: 13400000 instructions simulated : ctaid=(167,0,0) tid=(83,0,0)
GPGPU-Sim uArch: cycles simulated: 24000  inst.: 12887169 (ipc=537.0) sim_rate=415715 (inst/sec) elapsed = 0:0:00:31 / Wed Jan 30 06:43:02 2019
GPGPU-Sim PTX: 13500000 instructions simulated : ctaid=(166,0,0) tid=(16,0,0)
GPGPU-Sim PTX: 13600000 instructions simulated : ctaid=(188,0,0) tid=(150,0,0)
GPGPU-Sim uArch: Shader 1 finished CTA #1 (24390,0), 2 CTAs running
GPGPU-Sim uArch: core:  1, cta: 1 initialized @(24391,0)
GPGPU-Sim PTX: 13700000 instructions simulated : ctaid=(179,0,0) tid=(487,0,0)
GPGPU-Sim uArch: Shader 4 finished CTA #1 (24468,0), 2 CTAs running
GPGPU-Sim uArch: core:  4, cta: 1 initialized @(24469,0)
GPGPU-Sim PTX: 13800000 instructions simulated : ctaid=(157,0,0) tid=(300,0,0)
GPGPU-Sim uArch: Shader 9 finished CTA #1 (24642,0), 2 CTAs running
GPGPU-Sim uArch: core:  9, cta: 1 initialized @(24643,0)
GPGPU-Sim uArch: Shader 11 finished CTA #1 (24700,0), 2 CTAs running
GPGPU-Sim uArch: core: 11, cta: 1 initialized @(24701,0)
GPGPU-Sim PTX: 13900000 instructions simulated : ctaid=(183,0,0) tid=(148,0,0)
GPGPU-Sim PTX: 14000000 instructions simulated : ctaid=(161,0,0) tid=(3,0,0)
GPGPU-Sim uArch: cycles simulated: 25000  inst.: 13473400 (ipc=538.9) sim_rate=421043 (inst/sec) elapsed = 0:0:00:32 / Wed Jan 30 06:43:03 2019
GPGPU-Sim uArch: Shader 14 finished CTA #1 (25011,0), 2 CTAs running
GPGPU-Sim uArch: core: 14, cta: 1 initialized @(25012,0)
GPGPU-Sim uArch: Shader 3 finished CTA #1 (25021,0), 2 CTAs running
GPGPU-Sim uArch: core:  3, cta: 1 initialized @(25022,0)
GPGPU-Sim uArch: Shader 10 finished CTA #1 (25037,0), 2 CTAs running
GPGPU-Sim uArch: core: 10, cta: 1 initialized @(25038,0)
GPGPU-Sim PTX: 14100000 instructions simulated : ctaid=(166,0,0) tid=(235,0,0)
GPGPU-Sim uArch: Shader 8 finished CTA #1 (25264,0), 2 CTAs running
GPGPU-Sim uArch: core:  8, cta: 1 initialized @(25265,0)
GPGPU-Sim uArch: Shader 12 finished CTA #1 (25274,0), 2 CTAs running
GPGPU-Sim uArch: core: 12, cta: 1 initialized @(25275,0)
GPGPU-Sim PTX: 14200000 instructions simulated : ctaid=(166,0,0) tid=(258,0,0)
GPGPU-Sim uArch: Shader 7 finished CTA #1 (25371,0), 2 CTAs running
GPGPU-Sim uArch: core:  7, cta: 1 initialized @(25372,0)
GPGPU-Sim uArch: Shader 0 finished CTA #1 (25372,0), 2 CTAs running
GPGPU-Sim uArch: core:  0, cta: 1 initialized @(25373,0)
GPGPU-Sim uArch: Shader 13 finished CTA #1 (25379,0), 2 CTAs running
GPGPU-Sim uArch: core: 13, cta: 1 initialized @(25380,0)
GPGPU-Sim uArch: Shader 2 finished CTA #1 (25425,0), 2 CTAs running
GPGPU-Sim uArch: core:  2, cta: 1 initialized @(25426,0)
GPGPU-Sim PTX: 14300000 instructions simulated : ctaid=(174,0,0) tid=(31,0,0)
GPGPU-Sim uArch: Shader 5 finished CTA #1 (25472,0), 2 CTAs running
GPGPU-Sim uArch: core:  5, cta: 1 initialized @(25473,0)
GPGPU-Sim uArch: cycles simulated: 25500  inst.: 13742524 (ipc=538.9) sim_rate=416440 (inst/sec) elapsed = 0:0:00:33 / Wed Jan 30 06:43:04 2019
GPGPU-Sim uArch: Shader 6 finished CTA #1 (25508,0), 2 CTAs running
GPGPU-Sim uArch: core:  6, cta: 1 initialized @(25509,0)
GPGPU-Sim PTX: 14400000 instructions simulated : ctaid=(191,0,0) tid=(95,0,0)
GPGPU-Sim PTX: 14500000 instructions simulated : ctaid=(205,0,0) tid=(489,0,0)
GPGPU-Sim PTX: 14600000 instructions simulated : ctaid=(176,0,0) tid=(115,0,0)
GPGPU-Sim uArch: cycles simulated: 26000  inst.: 14063736 (ipc=540.9) sim_rate=413639 (inst/sec) elapsed = 0:0:00:34 / Wed Jan 30 06:43:05 2019
GPGPU-Sim PTX: 14700000 instructions simulated : ctaid=(169,0,0) tid=(85,0,0)
GPGPU-Sim PTX: 14800000 instructions simulated : ctaid=(209,0,0) tid=(78,0,0)
GPGPU-Sim uArch: Shader 4 finished CTA #2 (26368,0), 2 CTAs running
GPGPU-Sim uArch: core:  4, cta: 2 initialized @(26369,0)
GPGPU-Sim PTX: 14900000 instructions simulated : ctaid=(175,0,0) tid=(77,0,0)
GPGPU-Sim uArch: Shader 9 finished CTA #2 (26437,0), 2 CTAs running
GPGPU-Sim uArch: core:  9, cta: 2 initialized @(26438,0)
GPGPU-Sim uArch: Shader 1 finished CTA #2 (26499,0), 2 CTAs running
GPGPU-Sim uArch: core:  1, cta: 2 initialized @(26500,0)
GPGPU-Sim PTX: 15000000 instructions simulated : ctaid=(210,0,0) tid=(10,0,0)
GPGPU-Sim uArch: Shader 3 finished CTA #2 (26534,0), 2 CTAs running
GPGPU-Sim uArch: core:  3, cta: 2 initialized @(26535,0)
GPGPU-Sim uArch: Shader 11 finished CTA #2 (26661,0), 2 CTAs running
GPGPU-Sim uArch: core: 11, cta: 2 initialized @(26662,0)
GPGPU-Sim PTX: 15100000 instructions simulated : ctaid=(202,0,0) tid=(448,0,0)
GPGPU-Sim uArch: Shader 14 finished CTA #2 (26701,0), 2 CTAs running
GPGPU-Sim uArch: core: 14, cta: 2 initialized @(26702,0)
GPGPU-Sim uArch: Shader 10 finished CTA #2 (26741,0), 2 CTAs running
GPGPU-Sim uArch: core: 10, cta: 2 initialized @(26742,0)
GPGPU-Sim uArch: Shader 12 finished CTA #2 (26852,0), 2 CTAs running
GPGPU-Sim uArch: core: 12, cta: 2 initialized @(26853,0)
GPGPU-Sim PTX: 15200000 instructions simulated : ctaid=(207,0,0) tid=(144,0,0)
GPGPU-Sim uArch: Shader 8 finished CTA #2 (26950,0), 2 CTAs running
GPGPU-Sim uArch: core:  8, cta: 2 initialized @(26951,0)
GPGPU-Sim uArch: Shader 0 finished CTA #2 (26989,0), 2 CTAs running
GPGPU-Sim uArch: core:  0, cta: 2 initialized @(26990,0)
GPGPU-Sim uArch: cycles simulated: 27000  inst.: 14656016 (ipc=542.8) sim_rate=418743 (inst/sec) elapsed = 0:0:00:35 / Wed Jan 30 06:43:06 2019
GPGPU-Sim PTX: 15300000 instructions simulated : ctaid=(191,0,0) tid=(214,0,0)
GPGPU-Sim uArch: Shader 5 finished CTA #2 (27069,0), 2 CTAs running
GPGPU-Sim uArch: core:  5, cta: 2 initialized @(27070,0)
GPGPU-Sim uArch: Shader 7 finished CTA #2 (27107,0), 2 CTAs running
GPGPU-Sim uArch: core:  7, cta: 2 initialized @(27108,0)
GPGPU-Sim uArch: Shader 13 finished CTA #2 (27150,0), 2 CTAs running
GPGPU-Sim uArch: core: 13, cta: 2 initialized @(27151,0)
GPGPU-Sim PTX: 15400000 instructions simulated : ctaid=(193,0,0) tid=(246,0,0)
GPGPU-Sim uArch: Shader 2 finished CTA #2 (27201,0), 2 CTAs running
GPGPU-Sim uArch: core:  2, cta: 2 initialized @(27202,0)
GPGPU-Sim uArch: Shader 6 finished CTA #2 (27289,0), 2 CTAs running
GPGPU-Sim uArch: core:  6, cta: 2 initialized @(27290,0)
GPGPU-Sim PTX: 15500000 instructions simulated : ctaid=(181,0,0) tid=(336,0,0)
GPGPU-Sim uArch: cycles simulated: 27500  inst.: 14957280 (ipc=543.9) sim_rate=415480 (inst/sec) elapsed = 0:0:00:36 / Wed Jan 30 06:43:07 2019
GPGPU-Sim PTX: 15600000 instructions simulated : ctaid=(201,0,0) tid=(115,0,0)
GPGPU-Sim PTX: 15700000 instructions simulated : ctaid=(209,0,0) tid=(456,0,0)
GPGPU-Sim PTX: 15800000 instructions simulated : ctaid=(217,0,0) tid=(101,0,0)
GPGPU-Sim PTX: 15900000 instructions simulated : ctaid=(207,0,0) tid=(69,0,0)
GPGPU-Sim uArch: cycles simulated: 28000  inst.: 15262951 (ipc=545.1) sim_rate=412512 (inst/sec) elapsed = 0:0:00:37 / Wed Jan 30 06:43:08 2019
GPGPU-Sim PTX: 16000000 instructions simulated : ctaid=(187,0,0) tid=(34,0,0)
GPGPU-Sim uArch: Shader 9 finished CTA #0 (28234,0), 2 CTAs running
GPGPU-Sim uArch: core:  9, cta: 0 initialized @(28235,0)
GPGPU-Sim uArch: Shader 4 finished CTA #0 (28256,0), 2 CTAs running
GPGPU-Sim uArch: core:  4, cta: 0 initialized @(28257,0)
GPGPU-Sim PTX: 16100000 instructions simulated : ctaid=(208,0,0) tid=(377,0,0)
GPGPU-Sim uArch: Shader 1 finished CTA #0 (28309,0), 2 CTAs running
GPGPU-Sim uArch: core:  1, cta: 0 initialized @(28310,0)
GPGPU-Sim PTX: 16200000 instructions simulated : ctaid=(195,0,0) tid=(508,0,0)
GPGPU-Sim uArch: cycles simulated: 28500  inst.: 15551894 (ipc=545.7) sim_rate=409260 (inst/sec) elapsed = 0:0:00:38 / Wed Jan 30 06:43:09 2019
GPGPU-Sim uArch: Shader 11 finished CTA #0 (28501,0), 2 CTAs running
GPGPU-Sim uArch: core: 11, cta: 0 initialized @(28502,0)
GPGPU-Sim uArch: Shader 14 finished CTA #0 (28557,0), 2 CTAs running
GPGPU-Sim uArch: core: 14, cta: 0 initialized @(28558,0)
GPGPU-Sim uArch: Shader 3 finished CTA #0 (28560,0), 2 CTAs running
GPGPU-Sim uArch: core:  3, cta: 0 initialized @(28561,0)
GPGPU-Sim PTX: 16300000 instructions simulated : ctaid=(193,0,0) tid=(238,0,0)
GPGPU-Sim PTX: 16400000 instructions simulated : ctaid=(189,0,0) tid=(355,0,0)
GPGPU-Sim uArch: Shader 10 finished CTA #0 (28842,0), 2 CTAs running
GPGPU-Sim uArch: core: 10, cta: 0 initialized @(28843,0)
GPGPU-Sim uArch: Shader 8 finished CTA #0 (28913,0), 2 CTAs running
GPGPU-Sim uArch: core:  8, cta: 0 initialized @(28914,0)
GPGPU-Sim PTX: 16500000 instructions simulated : ctaid=(212,0,0) tid=(240,0,0)
GPGPU-Sim uArch: Shader 12 finished CTA #0 (29012,0), 2 CTAs running
GPGPU-Sim uArch: core: 12, cta: 0 initialized @(29013,0)
GPGPU-Sim uArch: Shader 7 finished CTA #0 (29144,0), 2 CTAs running
GPGPU-Sim uArch: core:  7, cta: 0 initialized @(29145,0)
GPGPU-Sim uArch: Shader 13 finished CTA #0 (29147,0), 2 CTAs running
GPGPU-Sim uArch: core: 13, cta: 0 initialized @(29148,0)
GPGPU-Sim PTX: 16600000 instructions simulated : ctaid=(200,0,0) tid=(430,0,0)
GPGPU-Sim uArch: Shader 0 finished CTA #0 (29162,0), 2 CTAs running
GPGPU-Sim uArch: core:  0, cta: 0 initialized @(29163,0)
GPGPU-Sim uArch: Shader 2 finished CTA #0 (29290,0), 2 CTAs running
GPGPU-Sim uArch: core:  2, cta: 0 initialized @(29291,0)
GPGPU-Sim PTX: 16700000 instructions simulated : ctaid=(216,0,0) tid=(85,0,0)
GPGPU-Sim uArch: Shader 6 finished CTA #0 (29322,0), 2 CTAs running
GPGPU-Sim uArch: core:  6, cta: 0 initialized @(29323,0)
GPGPU-Sim uArch: Shader 5 finished CTA #0 (29340,0), 2 CTAs running
GPGPU-Sim uArch: core:  5, cta: 0 initialized @(29341,0)
GPGPU-Sim PTX: 16800000 instructions simulated : ctaid=(198,0,0) tid=(287,0,0)
GPGPU-Sim uArch: cycles simulated: 29500  inst.: 16137579 (ipc=547.0) sim_rate=413784 (inst/sec) elapsed = 0:0:00:39 / Wed Jan 30 06:43:10 2019
GPGPU-Sim PTX: 16900000 instructions simulated : ctaid=(195,0,0) tid=(20,0,0)
GPGPU-Sim PTX: 17000000 instructions simulated : ctaid=(214,0,0) tid=(76,0,0)
GPGPU-Sim PTX: 17100000 instructions simulated : ctaid=(204,0,0) tid=(195,0,0)
GPGPU-Sim uArch: cycles simulated: 30000  inst.: 16433065 (ipc=547.8) sim_rate=410826 (inst/sec) elapsed = 0:0:00:40 / Wed Jan 30 06:43:11 2019
GPGPU-Sim uArch: Shader 1 finished CTA #1 (30103,0), 2 CTAs running
GPGPU-Sim uArch: core:  1, cta: 1 initialized @(30104,0)
GPGPU-Sim PTX: 17200000 instructions simulated : ctaid=(217,0,0) tid=(117,0,0)
GPGPU-Sim PTX: 17300000 instructions simulated : ctaid=(213,0,0) tid=(122,0,0)
GPGPU-Sim uArch: Shader 11 finished CTA #1 (30301,0), 2 CTAs running
GPGPU-Sim uArch: core: 11, cta: 1 initialized @(30302,0)
GPGPU-Sim uArch: Shader 4 finished CTA #1 (30325,0), 2 CTAs running
GPGPU-Sim uArch: core:  4, cta: 1 initialized @(30326,0)
GPGPU-Sim uArch: Shader 9 finished CTA #1 (30446,0), 2 CTAs running
GPGPU-Sim uArch: core:  9, cta: 1 initialized @(30447,0)
GPGPU-Sim PTX: 17400000 instructions simulated : ctaid=(209,0,0) tid=(15,0,0)
GPGPU-Sim uArch: Shader 14 finished CTA #1 (30457,0), 2 CTAs running
GPGPU-Sim uArch: core: 14, cta: 1 initialized @(30458,0)
GPGPU-Sim uArch: cycles simulated: 30500  inst.: 16725732 (ipc=548.4) sim_rate=407944 (inst/sec) elapsed = 0:0:00:41 / Wed Jan 30 06:43:12 2019
GPGPU-Sim uArch: Shader 3 finished CTA #1 (30603,0), 2 CTAs running
GPGPU-Sim uArch: core:  3, cta: 1 initialized @(30604,0)
GPGPU-Sim PTX: 17500000 instructions simulated : ctaid=(219,0,0) tid=(271,0,0)
GPGPU-Sim uArch: Shader 10 finished CTA #1 (30637,0), 2 CTAs running
GPGPU-Sim uArch: core: 10, cta: 1 initialized @(30638,0)
GPGPU-Sim PTX: 17600000 instructions simulated : ctaid=(235,0,0) tid=(297,0,0)
GPGPU-Sim uArch: Shader 12 finished CTA #1 (30879,0), 2 CTAs running
GPGPU-Sim uArch: core: 12, cta: 1 initialized @(30880,0)
GPGPU-Sim uArch: Shader 0 finished CTA #1 (30905,0), 2 CTAs running
GPGPU-Sim uArch: core:  0, cta: 1 initialized @(30906,0)
GPGPU-Sim PTX: 17700000 instructions simulated : ctaid=(224,0,0) tid=(193,0,0)
GPGPU-Sim uArch: Shader 7 finished CTA #1 (30969,0), 2 CTAs running
GPGPU-Sim uArch: core:  7, cta: 1 initialized @(30970,0)
GPGPU-Sim uArch: cycles simulated: 31000  inst.: 17010137 (ipc=548.7) sim_rate=405003 (inst/sec) elapsed = 0:0:00:42 / Wed Jan 30 06:43:13 2019
GPGPU-Sim uArch: Shader 8 finished CTA #1 (31014,0), 2 CTAs running
GPGPU-Sim uArch: core:  8, cta: 1 initialized @(31015,0)
GPGPU-Sim uArch: Shader 5 finished CTA #1 (31096,0), 2 CTAs running
GPGPU-Sim uArch: core:  5, cta: 1 initialized @(31097,0)
GPGPU-Sim PTX: 17800000 instructions simulated : ctaid=(231,0,0) tid=(412,0,0)
GPGPU-Sim uArch: Shader 13 finished CTA #1 (31254,0), 2 CTAs running
GPGPU-Sim uArch: core: 13, cta: 1 initialized @(31255,0)
GPGPU-Sim uArch: Shader 2 finished CTA #1 (31263,0), 2 CTAs running
GPGPU-Sim uArch: core:  2, cta: 1 initialized @(31264,0)
GPGPU-Sim uArch: Shader 6 finished CTA #1 (31277,0), 2 CTAs running
GPGPU-Sim uArch: core:  6, cta: 1 initialized @(31278,0)
GPGPU-Sim PTX: 17900000 instructions simulated : ctaid=(242,0,0) tid=(57,0,0)
GPGPU-Sim PTX: 18000000 instructions simulated : ctaid=(245,0,0) tid=(345,0,0)
GPGPU-Sim PTX: 18100000 instructions simulated : ctaid=(220,0,0) tid=(211,0,0)
GPGPU-Sim PTX: 18200000 instructions simulated : ctaid=(239,0,0) tid=(456,0,0)
GPGPU-Sim PTX: 18300000 instructions simulated : ctaid=(246,0,0) tid=(410,0,0)
GPGPU-Sim uArch: cycles simulated: 32000  inst.: 17610672 (ipc=550.3) sim_rate=409550 (inst/sec) elapsed = 0:0:00:43 / Wed Jan 30 06:43:14 2019
GPGPU-Sim PTX: 18400000 instructions simulated : ctaid=(215,0,0) tid=(111,0,0)
GPGPU-Sim uArch: Shader 9 finished CTA #2 (32132,0), 2 CTAs running
GPGPU-Sim uArch: core:  9, cta: 2 initialized @(32133,0)
GPGPU-Sim uArch: Shader 1 finished CTA #2 (32224,0), 2 CTAs running
GPGPU-Sim uArch: core:  1, cta: 2 initialized @(32225,0)
GPGPU-Sim uArch: Shader 4 finished CTA #2 (32228,0), 2 CTAs running
GPGPU-Sim uArch: core:  4, cta: 2 initialized @(32229,0)
GPGPU-Sim PTX: 18500000 instructions simulated : ctaid=(237,0,0) tid=(487,0,0)
GPGPU-Sim uArch: Shader 3 finished CTA #2 (32355,0), 2 CTAs running
GPGPU-Sim uArch: core:  3, cta: 2 initialized @(32356,0)
GPGPU-Sim PTX: 18600000 instructions simulated : ctaid=(255,0,0) tid=(368,0,0)
GPGPU-Sim uArch: Shader 11 finished CTA #2 (32443,0), 2 CTAs running
GPGPU-Sim uArch: core: 11, cta: 2 initialized @(32444,0)
GPGPU-Sim uArch: Shader 14 finished CTA #2 (32491,0), 2 CTAs running
GPGPU-Sim uArch: core: 14, cta: 2 initialized @(32492,0)
GPGPU-Sim uArch: cycles simulated: 32500  inst.: 17900461 (ipc=550.8) sim_rate=406828 (inst/sec) elapsed = 0:0:00:44 / Wed Jan 30 06:43:15 2019
GPGPU-Sim PTX: 18700000 instructions simulated : ctaid=(245,0,0) tid=(396,0,0)
GPGPU-Sim uArch: Shader 10 finished CTA #2 (32569,0), 2 CTAs running
GPGPU-Sim uArch: core: 10, cta: 2 initialized @(32570,0)
GPGPU-Sim PTX: 18800000 instructions simulated : ctaid=(260,0,0) tid=(494,0,0)
GPGPU-Sim uArch: Shader 12 finished CTA #2 (32887,0), 2 CTAs running
GPGPU-Sim uArch: core: 12, cta: 2 initialized @(32888,0)
GPGPU-Sim PTX: 18900000 instructions simulated : ctaid=(262,0,0) tid=(320,0,0)
GPGPU-Sim uArch: Shader 7 finished CTA #2 (32918,0), 2 CTAs running
GPGPU-Sim uArch: core:  7, cta: 2 initialized @(32919,0)
GPGPU-Sim uArch: Shader 8 finished CTA #2 (32922,0), 2 CTAs running
GPGPU-Sim uArch: core:  8, cta: 2 initialized @(32923,0)
GPGPU-Sim uArch: Shader 0 finished CTA #2 (32962,0), 2 CTAs running
GPGPU-Sim uArch: core:  0, cta: 2 initialized @(32963,0)
GPGPU-Sim uArch: Shader 5 finished CTA #2 (32994,0), 2 CTAs running
GPGPU-Sim uArch: core:  5, cta: 2 initialized @(32995,0)
GPGPU-Sim uArch: cycles simulated: 33000  inst.: 18190516 (ipc=551.2) sim_rate=404233 (inst/sec) elapsed = 0:0:00:45 / Wed Jan 30 06:43:16 2019
GPGPU-Sim uArch: Shader 13 finished CTA #2 (33014,0), 2 CTAs running
GPGPU-Sim uArch: core: 13, cta: 2 initialized @(33015,0)
GPGPU-Sim PTX: 19000000 instructions simulated : ctaid=(236,0,0) tid=(127,0,0)
GPGPU-Sim uArch: Shader 6 finished CTA #2 (33207,0), 2 CTAs running
GPGPU-Sim uArch: core:  6, cta: 2 initialized @(33208,0)
GPGPU-Sim uArch: Shader 2 finished CTA #2 (33211,0), 2 CTAs running
GPGPU-Sim uArch: core:  2, cta: 2 initialized @(33212,0)
GPGPU-Sim PTX: 19100000 instructions simulated : ctaid=(230,0,0) tid=(73,0,0)
GPGPU-Sim PTX: 19200000 instructions simulated : ctaid=(249,0,0) tid=(451,0,0)
GPGPU-Sim uArch: cycles simulated: 33500  inst.: 18491972 (ipc=552.0) sim_rate=401999 (inst/sec) elapsed = 0:0:00:46 / Wed Jan 30 06:43:17 2019
GPGPU-Sim PTX: 19300000 instructions simulated : ctaid=(229,0,0) tid=(259,0,0)
GPGPU-Sim PTX: 19400000 instructions simulated : ctaid=(249,0,0) tid=(125,0,0)
GPGPU-Sim PTX: 19500000 instructions simulated : ctaid=(265,0,0) tid=(265,0,0)
GPGPU-Sim uArch: Shader 4 finished CTA #0 (33901,0), 2 CTAs running
GPGPU-Sim uArch: core:  4, cta: 0 initialized @(33902,0)
GPGPU-Sim uArch: Shader 9 finished CTA #0 (34010,0), 2 CTAs running
GPGPU-Sim uArch: core:  9, cta: 0 initialized @(34011,0)
GPGPU-Sim uArch: Shader 1 finished CTA #0 (34016,0), 2 CTAs running
GPGPU-Sim uArch: core:  1, cta: 0 initialized @(34017,0)
GPGPU-Sim PTX: 19600000 instructions simulated : ctaid=(253,0,0) tid=(278,0,0)
GPGPU-Sim PTX: 19700000 instructions simulated : ctaid=(257,0,0) tid=(170,0,0)
GPGPU-Sim uArch: Shader 11 finished CTA #0 (34219,0), 2 CTAs running
GPGPU-Sim uArch: core: 11, cta: 0 initialized @(34220,0)
GPGPU-Sim uArch: Shader 3 finished CTA #0 (34231,0), 2 CTAs running
GPGPU-Sim uArch: core:  3, cta: 0 initialized @(34232,0)
GPGPU-Sim uArch: Shader 14 finished CTA #0 (34345,0), 2 CTAs running
GPGPU-Sim uArch: core: 14, cta: 0 initialized @(34346,0)
GPGPU-Sim PTX: 19800000 instructions simulated : ctaid=(255,0,0) tid=(366,0,0)
GPGPU-Sim uArch: cycles simulated: 34500  inst.: 19094723 (ipc=553.5) sim_rate=406270 (inst/sec) elapsed = 0:0:00:47 / Wed Jan 30 06:43:18 2019
GPGPU-Sim PTX: 19900000 instructions simulated : ctaid=(254,0,0) tid=(125,0,0)
GPGPU-Sim uArch: Shader 8 finished CTA #0 (34564,0), 2 CTAs running
GPGPU-Sim uArch: core:  8, cta: 0 initialized @(34565,0)
GPGPU-Sim uArch: Shader 10 finished CTA #0 (34626,0), 2 CTAs running
GPGPU-Sim uArch: core: 10, cta: 0 initialized @(34627,0)
GPGPU-Sim PTX: 20000000 instructions simulated : ctaid=(250,0,0) tid=(281,0,0)
GPGPU-Sim uArch: Shader 12 finished CTA #0 (34735,0), 2 CTAs running
GPGPU-Sim uArch: core: 12, cta: 0 initialized @(34736,0)
GPGPU-Sim uArch: Shader 7 finished CTA #0 (34750,0), 2 CTAs running
GPGPU-Sim uArch: core:  7, cta: 0 initialized @(34751,0)
GPGPU-Sim uArch: Shader 0 finished CTA #0 (34780,0), 2 CTAs running
GPGPU-Sim uArch: core:  0, cta: 0 initialized @(34781,0)
GPGPU-Sim uArch: Shader 5 finished CTA #0 (34837,0), 2 CTAs running
GPGPU-Sim uArch: core:  5, cta: 0 initialized @(34838,0)
GPGPU-Sim PTX: 20100000 instructions simulated : ctaid=(246,0,0) tid=(177,0,0)
GPGPU-Sim uArch: Shader 13 finished CTA #0 (34903,0), 2 CTAs running
GPGPU-Sim uArch: core: 13, cta: 0 initialized @(34904,0)
GPGPU-Sim uArch: Shader 6 finished CTA #0 (34960,0), 2 CTAs running
GPGPU-Sim uArch: core:  6, cta: 0 initialized @(34961,0)
GPGPU-Sim uArch: Shader 2 finished CTA #0 (34964,0), 2 CTAs running
GPGPU-Sim uArch: core:  2, cta: 0 initialized @(34965,0)
GPGPU-Sim uArch: cycles simulated: 35000  inst.: 19373696 (ipc=553.5) sim_rate=403618 (inst/sec) elapsed = 0:0:00:48 / Wed Jan 30 06:43:19 2019
GPGPU-Sim PTX: 20200000 instructions simulated : ctaid=(246,0,0) tid=(265,0,0)
GPGPU-Sim PTX: 20300000 instructions simulated : ctaid=(284,0,0) tid=(184,0,0)
GPGPU-Sim PTX: 20400000 instructions simulated : ctaid=(254,0,0) tid=(423,0,0)
GPGPU-Sim PTX: 20500000 instructions simulated : ctaid=(267,0,0) tid=(468,0,0)
GPGPU-Sim uArch: cycles simulated: 35500  inst.: 19684474 (ipc=554.5) sim_rate=401723 (inst/sec) elapsed = 0:0:00:49 / Wed Jan 30 06:43:20 2019
GPGPU-Sim PTX: 20600000 instructions simulated : ctaid=(257,0,0) tid=(32,0,0)
GPGPU-Sim uArch: Shader 1 finished CTA #1 (35711,0), 2 CTAs running
GPGPU-Sim uArch: core:  1, cta: 1 initialized @(35712,0)
GPGPU-Sim PTX: 20700000 instructions simulated : ctaid=(246,0,0) tid=(486,0,0)
GPGPU-Sim PTX: 20800000 instructions simulated : ctaid=(273,0,0) tid=(262,0,0)
GPGPU-Sim uArch: cycles simulated: 36000  inst.: 19983460 (ipc=555.1) sim_rate=399669 (inst/sec) elapsed = 0:0:00:50 / Wed Jan 30 06:43:21 2019
GPGPU-Sim PTX: 20900000 instructions simulated : ctaid=(251,0,0) tid=(100,0,0)
GPGPU-Sim uArch: Shader 9 finished CTA #1 (36179,0), 2 CTAs running
GPGPU-Sim uArch: core:  9, cta: 1 initialized @(36180,0)
GPGPU-Sim uArch: Shader 11 finished CTA #1 (36183,0), 2 CTAs running
GPGPU-Sim uArch: core: 11, cta: 1 initialized @(36184,0)
GPGPU-Sim uArch: Shader 4 finished CTA #1 (36199,0), 2 CTAs running
GPGPU-Sim uArch: core:  4, cta: 1 initialized @(36200,0)
GPGPU-Sim uArch: Shader 14 finished CTA #1 (36235,0), 2 CTAs running
GPGPU-Sim uArch: core: 14, cta: 1 initialized @(36236,0)
GPGPU-Sim uArch: Shader 3 finished CTA #1 (36246,0), 2 CTAs running
GPGPU-Sim uArch: core:  3, cta: 1 initialized @(36247,0)
GPGPU-Sim PTX: 21000000 instructions simulated : ctaid=(252,0,0) tid=(105,0,0)
GPGPU-Sim uArch: Shader 10 finished CTA #1 (36381,0), 2 CTAs running
GPGPU-Sim uArch: core: 10, cta: 1 initialized @(36382,0)
GPGPU-Sim PTX: 21100000 instructions simulated : ctaid=(255,0,0) tid=(231,0,0)
GPGPU-Sim uArch: Shader 7 finished CTA #1 (36564,0), 2 CTAs running
GPGPU-Sim uArch: core:  7, cta: 1 initialized @(36565,0)
GPGPU-Sim PTX: 21200000 instructions simulated : ctaid=(272,0,0) tid=(288,0,0)
GPGPU-Sim uArch: Shader 8 finished CTA #1 (36633,0), 2 CTAs running
GPGPU-Sim uArch: core:  8, cta: 1 initialized @(36634,0)
GPGPU-Sim uArch: Shader 12 finished CTA #1 (36636,0), 2 CTAs running
GPGPU-Sim uArch: core: 12, cta: 1 initialized @(36637,0)
GPGPU-Sim uArch: Shader 13 finished CTA #1 (36709,0), 2 CTAs running
GPGPU-Sim uArch: core: 13, cta: 1 initialized @(36710,0)
GPGPU-Sim PTX: 21300000 instructions simulated : ctaid=(289,0,0) tid=(419,0,0)
GPGPU-Sim uArch: Shader 5 finished CTA #1 (36808,0), 2 CTAs running
GPGPU-Sim uArch: core:  5, cta: 1 initialized @(36809,0)
GPGPU-Sim uArch: Shader 2 finished CTA #1 (36892,0), 2 CTAs running
GPGPU-Sim uArch: core:  2, cta: 1 initialized @(36893,0)
GPGPU-Sim uArch: Shader 0 finished CTA #1 (36932,0), 2 CTAs running
GPGPU-Sim uArch: core:  0, cta: 1 initialized @(36933,0)
GPGPU-Sim uArch: Shader 6 finished CTA #1 (36939,0), 2 CTAs running
GPGPU-Sim uArch: core:  6, cta: 1 initialized @(36940,0)
GPGPU-Sim PTX: 21400000 instructions simulated : ctaid=(276,0,0) tid=(286,0,0)
GPGPU-Sim uArch: cycles simulated: 37000  inst.: 20561540 (ipc=555.7) sim_rate=403167 (inst/sec) elapsed = 0:0:00:51 / Wed Jan 30 06:43:22 2019
GPGPU-Sim PTX: 21500000 instructions simulated : ctaid=(261,0,0) tid=(57,0,0)
GPGPU-Sim PTX: 21600000 instructions simulated : ctaid=(272,0,0) tid=(35,0,0)
GPGPU-Sim PTX: 21700000 instructions simulated : ctaid=(282,0,0) tid=(375,0,0)
[...]
gpgpu_stall_shd_mem[g_mem_st][wb_rsrv_fail] = 0
gpgpu_stall_shd_mem[l_mem_ld][mshr_rc] = 0
gpgpu_stall_shd_mem[l_mem_ld][icnt_rc] = 0
gpgpu_stall_shd_mem[l_mem_ld][wb_icnt_rc] = 0
gpgpu_stall_shd_mem[l_mem_ld][wb_rsrv_fail] = 0
gpgpu_stall_shd_mem[l_mem_st][mshr_rc] = 0
gpgpu_stall_shd_mem[l_mem_st][icnt_rc] = 0
gpgpu_stall_shd_mem[l_mem_ld][wb_icnt_rc] = 0
gpgpu_stall_shd_mem[l_mem_ld][wb_rsrv_fail] = 0
gpu_reg_bank_conflict_stalls = 0
Warp Occupancy Distribution:
Stall:154359	W0_Idle:49125	W0_Scoreboard:304646	W1:363444	W2:187584	W3:0	W4:187584	W5:0	W6:0	W7:0	W8:187584	W9:0	W10:0	W11:0	W12:0	W13:0	W14:0	W15:0	W16:187584	W17:0	W18:0	W19:0	W20:0	W21:0	W22:0	W23:0	W24:0	W25:0	W26:0	W27:0	W28:0	W29:0	W30:0	W31:0	W32:2204014
traffic_breakdown_coretomem[CONST_ACC_R] = 120 {8:15,}
traffic_breakdown_coretomem[GLOBAL_ACC_R] = 250000 {8:31250,}
traffic_breakdown_coretomem[GLOBAL_ACC_W] = 625280 {40:15632,}
traffic_breakdown_coretomem[INST_ACC_R] = 600 {8:75,}
traffic_breakdown_memtocore[CONST_ACC_R] = 1080 {72:15,}
traffic_breakdown_memtocore[GLOBAL_ACC_R] = 4250000 {136:31250,}
traffic_breakdown_memtocore[GLOBAL_ACC_W] = 125056 {8:15632,}
traffic_breakdown_memtocore[INST_ACC_R] = 10200 {136:75,}
maxmrqlatency = 211 
maxdqlatency = 0 
maxmflatency = 921 
averagemflatency = 247 
max_icnt2mem_latency = 730 
max_icnt2sh_latency = 128559 
mrq_lat_table:28544 	1038 	473 	446 	493 	227 	188 	25 	0 	0 	0 	0 	0 	0 	0 	0 	0 	0 	0 	0 	0 	0 	0 	0 	0 	0 	0 	0 	0 	0 	0 	0 	
dq_lat_table:0 	0 	0 	0 	0 	0 	0 	0 	0 	0 	0 	0 	0 	0 	0 	0 	0 	0 	0 	0 	0 	0 	0 	0 	0 	0 	0 	0 	0 	0 	0 	0 	
mf_lat_table:0 	0 	0 	0 	0 	0 	0 	13757 	32170 	970 	0 	0 	0 	0 	0 	0 	0 	0 	0 	0 	0 	0 	0 	0 	0 	0 	0 	0 	0 	0 	0 	0 	
icnt2mem_lat_table:0 	0 	0 	34255 	5219 	3797 	2145 	834 	550 	172 	0 	0 	0 	0 	0 	0 	0 	0 	0 	0 	0 	0 	0 	0 	
icnt2sh_lat_table:0 	0 	0 	22621 	7370 	1156 	118 	0 	0 	0 	0 	0 	497 	943 	2049 	4148 	7995 	0 	0 	0 	0 	0 	0 	0 	
mf_lat_pw_table:0 	0 	0 	0 	0 	0 	0 	198 	51 	1 	0 	0 	0 	0 	0 	0 	0 	0 	0 	0 	0 	0 	0 	0 	0 	0 	0 	0 	0 	0 	0 	0 	
maximum concurrent accesses to same row:
dram[0]:        32        32        32        32        32        32        32        32        32        32        32        32        32        32        32        32 
dram[1]:        32        32        32        32        32        32        32        32        32        32        32        32        32        32        32        32 
dram[2]:        32        32        32        32        32        32        32        32        32        32        32        32        32        32        32        32 
dram[3]:        32        32        32        32        32        32        32        32        32        32        32        32        32        32        32        32 
dram[4]:        32        32        32        32        32        32        32        32        32        32        32        32        32        32        32        32 
dram[5]:        32        32        32        32        32        32        32        32        32        32        32        32        32        32        32        32 
maximum service time to same row:
dram[0]:     12858     12775     13253     13309     13976     14057     12609     12767     12743     12848     14069     14226     16163     16222     12810     12669 
dram[1]:     12870     12802     13312     13375     13964     14066     12650     12757     12732     12968     14109     14246     16152     16329     12847     12698 
dram[2]:     12919     12797     13327     13179     13957     14103     12703     12582     12947     12793     14113     14248     16219     16335     12854     12585 
dram[3]:     12975     12767     13352     13116     14048     14112     12686     12562     12925     12521     14122     14351     16231     16401     12850     12585 
dram[4]:     12754     12812     13200     13079     13949     14109     12747     12636     12894     12623     14161     14307     16199     16465     12666     12565 
dram[5]:     12762     12867     13263     13041     14024     14234     12784     12646     12792     12992     14181     14348     16234     16531     12660     12666 
average row accesses per activate:
dram[0]: 24.846153 32.000000 32.000000 32.000000 30.000000 30.000000 32.000000 32.000000 26.076923 25.692308 32.000000 32.000000 32.000000 32.000000 32.000000 32.000000 
dram[1]: 29.272728 32.000000 32.000000 32.000000 30.000000 30.000000 32.000000 32.000000 20.875000 20.875000 32.000000 32.000000 32.000000 32.000000 32.000000 32.000000 
dram[2]: 29.181818 32.000000 32.000000 32.000000 30.000000 30.181818 32.000000 32.000000 22.266666 27.750000 32.000000 32.000000 32.000000 32.000000 32.000000 32.000000 
dram[3]: 32.000000 32.000000 32.000000 32.000000 30.000000 30.181818 32.000000 32.000000 25.692308 26.307692 32.000000 32.000000 32.000000 32.000000 32.000000 32.000000 
dram[4]: 32.000000 32.000000 32.000000 32.000000 30.000000 30.181818 32.000000 32.000000 20.875000 20.117647 32.000000 32.000000 32.000000 32.000000 32.000000 32.000000 
dram[5]: 32.000000 32.000000 32.000000 32.000000 30.000000 30.181818 32.000000 32.000000 22.266666 22.799999 32.000000 32.000000 32.000000 32.000000 32.000000 32.000000 
average row locality = 31434/1043 = 30.138063
number of total memory accesses made:
dram[0]:         0         0         0         0         0         0         0         0         0         0         0         0         0         0         0         0 
dram[1]:         0         0         0         0         0         0         0         0         0         0         0         0         0         0         0         0 
dram[2]:         0         0         0         0         0         0         0         0         0         0         0         0         0         0         0         0 
dram[3]:         0         0         0         0         0         0         0         0         0         0         0         0         0         0         0         0 
dram[4]:         0         0         0         0         0         0         0         0         0         0         0         0         0         0         0         0 
dram[5]:         0         0         0         0         0         0         0         0         0         0         0         0         0         0         0         0 
total accesses: 0
min_bank_accesses = 0!
min_chip_accesses = 0!
number of total read accesses:
dram[0]:       323       320       320       320       330       330       352       352       325       324       320       320       320       320       320       320 
dram[1]:       322       320       320       320       330       330       352       352       324       324       320       320       320       320       320       320 
dram[2]:       321       320       320       320       330       332       352       352       324       324       320       320       320       320       320       320 
dram[3]:       320       320       320       320       330       332       352       352       324       324       320       320       320       320       320       320 
dram[4]:       320       320       320       320       330       332       352       352       324       324       320       320       320       320       320       320 
dram[5]:       320       320       320       320       330       332       352       352       324       324       320       320       320       320       320       320 
total reads: 31287
bank skew: 352/320 = 1.10
chip skew: 5216/5214 = 1.00
number of total write accesses:
dram[0]:         0         0         0         0         0         0         0         0        14        10         0         0         0         0         0         0 
dram[1]:         0         0         0         0         0         0         0         0        10        10         0         0         0         0         0         0 
dram[2]:         0         0         0         0         0         0         0         0        10         9         0         0         0         0         0         0 
dram[3]:         0         0         0         0         0         0         0         0        10        18         0         0         0         0         0         0 
dram[4]:         0         0         0         0         0         0         0         0        10        18         0         0         0         0         0         0 
dram[5]:         0         0         0         0         0         0         0         0        10        18         0         0         0         0         0         0 
total reads: 147
min_bank_accesses = 0!
chip skew: 28/19 = 1.47
average mf latency per bank:
dram[0]:        282       272       263       265       265       265       278       280       939       774       279       275       283       286       283       292
dram[1]:        270       269       263       262       266       264       278       281       801       798       278       275       281       288       282       291
dram[2]:        272       276       264       263       267       267       281       283       814       777       279       282       289       286       281       284
dram[3]:        273       280       264       263       267       267       282       284       825      1857       279       281       289       285       280       287
dram[4]:        267       275       262       263       267       268       286       287       815      1399       280       281       290       285       296       281
dram[5]:        267       275       262       263       266       266       281       284       794      1332       275       280       289       283       292       281
maximum mf latency per bank:
dram[0]:        595       603       363       372       471       370       594       561       588       451       581       557       810       870       848       815
dram[1]:        545       540       394       312       493       354       646       655       622       469       638       575       844       852       848       814
dram[2]:        561       709       405       371       491       425       645       582       639       484       598       684       857       778       813       907
dram[3]:        571       638       419       355       545       495       637       687       583       860       549       547       813       754       837       853
dram[4]:        510       658       339       398       432       439       679       625       691       486       601       557       921       749       917       714
dram[5]:        454       596       330       375       388       437       683       671       657       442       539       537       894       757       874       724
Memory Partition 0: 
Cache L2_bank_000:
MSHR contents

Cache L2_bank_001:
MSHR contents

In Dram Latency Queue (total = 0): 
DRAM[0]: 16 bks, busW=4 BL=8 CL=12, tRRD=2 tCCD=6, tRCD=12 tRAS=28 tRP=12 tRC=40
n_cmd=169698 n_nop=158908 n_act=173 n_pre=157 n_req=5240 n_rd=10432 n_write=28 bw_util=0.1233
n_activity=64075 dram_eff=0.3265
bk0: 646a 167899i bk1: 640a 167778i bk2: 640a 167937i bk3: 640a 167879i bk4: 660a 167827i bk5: 660a 167735i bk6: 704a 167665i bk7: 704a 167376i bk8: 650a 167699i bk9: 648a 167490i bk10: 640a 167538i bk11: 640a 167355i bk12: 640a 167605i bk13: 640a 167374i bk14: 640a 167908i bk15: 640a 167621i 
dram_util_bins: 0 0 0 0 0 0 0 0 0 0
dram_eff_bins: 0 0 0 0 0 0 0 0 0 0
mrqq: max=16 avg=0.0657521
Memory Partition 1: 
Cache L2_bank_002:
MSHR contents

Cache L2_bank_003:
MSHR contents

In Dram Latency Queue (total = 0): 
DRAM[1]: 16 bks, busW=4 BL=8 CL=12, tRRD=2 tCCD=6, tRCD=12 tRAS=28 tRP=12 tRC=40
n_cmd=169698 n_nop=158908 n_act=177 n_pre=161 n_req=5234 n_rd=10428 n_write=24 bw_util=0.1232
n_activity=64008 dram_eff=0.3266
bk0: 644a 167976i bk1: 640a 167800i bk2: 640a 167939i bk3: 640a 167892i bk4: 660a 167902i bk5: 660a 167844i bk6: 704a 167696i bk7: 704a 167345i bk8: 648a 167698i bk9: 648a 167539i bk10: 640a 167577i bk11: 640a 167356i bk12: 640a 167708i bk13: 640a 167413i bk14: 640a 167892i bk15: 640a 167638i 
dram_util_bins: 0 0 0 0 0 0 0 0 0 0
dram_eff_bins: 0 0 0 0 0 0 0 0 0 0
mrqq: max=16 avg=0.0488456
Memory Partition 2: 
Cache L2_bank_004:
MSHR contents

Cache L2_bank_005:
MSHR contents

In Dram Latency Queue (total = 0): 
DRAM[2]: 16 bks, busW=4 BL=8 CL=12, tRRD=2 tCCD=6, tRCD=12 tRAS=28 tRP=12 tRC=40
n_cmd=169698 n_nop=158918 n_act=172 n_pre=156 n_req=5234 n_rd=10430 n_write=22 bw_util=0.1232
n_activity=63938 dram_eff=0.3269
bk0: 642a 167980i bk1: 640a 167761i bk2: 640a 168029i bk3: 640a 167883i bk4: 660a 167905i bk5: 664a 167712i bk6: 704a 167651i bk7: 704a 167287i bk8: 648a 167689i bk9: 648a 167472i bk10: 640a 167559i bk11: 640a 167400i bk12: 640a 167470i bk13: 640a 167335i bk14: 640a 167916i bk15: 640a 167678i 
dram_util_bins: 0 0 0 0 0 0 0 0 0 0
dram_eff_bins: 0 0 0 0 0 0 0 0 0 0
mrqq: max=16 avg=0.0690403
Memory Partition 3: 
Cache L2_bank_006:
MSHR contents

Cache L2_bank_007:
MSHR contents

In Dram Latency Queue (total = 0): 
DRAM[3]: 16 bks, busW=4 BL=8 CL=12, tRRD=2 tCCD=6, tRCD=12 tRAS=28 tRP=12 tRC=40
n_cmd=169698 n_nop=158914 n_act=170 n_pre=154 n_req=5242 n_rd=10428 n_write=32 bw_util=0.1233
n_activity=64011 dram_eff=0.3268
bk0: 640a 168042i bk1: 640a 167751i bk2: 640a 167970i bk3: 640a 167849i bk4: 660a 167888i bk5: 664a 167745i bk6: 704a 167633i bk7: 704a 167310i bk8: 648a 167749i bk9: 648a 167490i bk10: 640a 167636i bk11: 640a 167203i bk12: 640a 167598i bk13: 640a 167427i bk14: 640a 167929i bk15: 640a 167546i 
dram_util_bins: 0 0 0 0 0 0 0 0 0 0
dram_eff_bins: 0 0 0 0 0 0 0 0 0 0
mrqq: max=16 avg=0.0695294
Memory Partition 4: 
Cache L2_bank_008:
MSHR contents

Cache L2_bank_009:
MSHR contents

In Dram Latency Queue (total = 0): 
DRAM[4]: 16 bks, busW=4 BL=8 CL=12, tRRD=2 tCCD=6, tRCD=12 tRAS=28 tRP=12 tRC=40
n_cmd=169698 n_nop=158900 n_act=177 n_pre=161 n_req=5242 n_rd=10428 n_write=32 bw_util=0.1233
n_activity=64088 dram_eff=0.3264
bk0: 640a 168038i bk1: 640a 167848i bk2: 640a 168018i bk3: 640a 167882i bk4: 660a 167795i bk5: 664a 167671i bk6: 704a 167495i bk7: 704a 167249i bk8: 648a 167607i bk9: 648a 167409i bk10: 640a 167603i bk11: 640a 167356i bk12: 640a 167483i bk13: 640a 167466i bk14: 640a 167918i bk15: 640a 167762i 
dram_util_bins: 0 0 0 0 0 0 0 0 0 0
dram_eff_bins: 0 0 0 0 0 0 0 0 0 0
mrqq: max=16 avg=0.0704605
Memory Partition 5: 
Cache L2_bank_010:
MSHR contents

Cache L2_bank_011:
MSHR contents

In Dram Latency Queue (total = 0): 
DRAM[5]: 16 bks, busW=4 BL=8 CL=12, tRRD=2 tCCD=6, tRCD=12 tRAS=28 tRP=12 tRC=40
n_cmd=169698 n_nop=158906 n_act=174 n_pre=158 n_req=5242 n_rd=10428 n_write=32 bw_util=0.1233
n_activity=64461 dram_eff=0.3245
bk0: 640a 168056i bk1: 640a 167904i bk2: 640a 168071i bk3: 640a 167934i bk4: 660a 167933i bk5: 664a 167661i bk6: 704a 167608i bk7: 704a 167354i bk8: 648a 167710i bk9: 648a 167440i bk10: 640a 167653i bk11: 640a 167426i bk12: 640a 167501i bk13: 640a 167565i bk14: 640a 167874i bk15: 640a 167717i 
dram_util_bins: 0 0 0 0 0 0 0 0 0 0
dram_eff_bins: 0 0 0 0 0 0 0 0 0 0
mrqq: max=16 avg=0.0588575

========= L2 cache stats =========
L2_cache_bank[0]: Access = 3945, Miss = 2610, Miss_rate = 0.662, Pending_hits = 18, Reservation_fails = 744
L2_cache_bank[1]: Access = 3628, Miss = 2606, Miss_rate = 0.718, Pending_hits = 6, Reservation_fails = 294
L2_cache_bank[2]: Access = 3658, Miss = 2608, Miss_rate = 0.713, Pending_hits = 11, Reservation_fails = 390
L2_cache_bank[3]: Access = 3628, Miss = 2606, Miss_rate = 0.718, Pending_hits = 6, Reservation_fails = 247
L2_cache_bank[4]: Access = 3643, Miss = 2607, Miss_rate = 0.716, Pending_hits = 9, Reservation_fails = 370
L2_cache_bank[5]: Access = 3630, Miss = 2608, Miss_rate = 0.718, Pending_hits = 6, Reservation_fails = 371
L2_cache_bank[6]: Access = 3628, Miss = 2606, Miss_rate = 0.718, Pending_hits = 6, Reservation_fails = 247
L2_cache_bank[7]: Access = 4652, Miss = 2608, Miss_rate = 0.561, Pending_hits = 12, Reservation_fails = 552
L2_cache_bank[8]: Access = 3628, Miss = 2606, Miss_rate = 0.718, Pending_hits = 6, Reservation_fails = 378
L2_cache_bank[9]: Access = 4652, Miss = 2608, Miss_rate = 0.561, Pending_hits = 12, Reservation_fails = 623
L2_cache_bank[10]: Access = 3628, Miss = 2606, Miss_rate = 0.718, Pending_hits = 6, Reservation_fails = 273
L2_cache_bank[11]: Access = 4652, Miss = 2608, Miss_rate = 0.561, Pending_hits = 12, Reservation_fails = 552
L2_total_cache_accesses = 46972
L2_total_cache_misses = 31287
L2_total_cache_miss_rate = 0.6661
L2_total_cache_pending_hits = 110
L2_total_cache_reservation_fails = 5041
L2_total_cache_breakdown:
	L2_cache_stats_breakdown[GLOBAL_ACC_R][MISS] = 31250
	L2_cache_stats_breakdown[GLOBAL_ACC_R][RESERVATION_FAIL] = 823
	L2_cache_stats_breakdown[CONST_ACC_R][HIT] = 11
	L2_cache_stats_breakdown[CONST_ACC_R][HIT_RESERVED] = 3
	L2_cache_stats_breakdown[CONST_ACC_R][MISS] = 1
	L2_cache_stats_breakdown[CONST_ACC_R][RESERVATION_FAIL] = 102
	L2_cache_stats_breakdown[GLOBAL_ACC_W][HIT] = 15508
	L2_cache_stats_breakdown[GLOBAL_ACC_W][HIT_RESERVED] = 93
	L2_cache_stats_breakdown[GLOBAL_ACC_W][MISS] = 31
	L2_cache_stats_breakdown[GLOBAL_ACC_W][RESERVATION_FAIL] = 3735
	L2_cache_stats_breakdown[INST_ACC_R][HIT] = 56
	L2_cache_stats_breakdown[INST_ACC_R][HIT_RESERVED] = 14
	L2_cache_stats_breakdown[INST_ACC_R][MISS] = 5
	L2_cache_stats_breakdown[INST_ACC_R][RESERVATION_FAIL] = 381
L2_cache_data_port_util = 0.010
L2_cache_fill_port_util = 0.081

icnt_total_pkts_mem_to_simt=172302
icnt_total_pkts_simt_to_mem=62604
LD_mem_lat_dist  0 0 0 0 0 0 0 0 0 0 0 0 0 0 0 0 0 0 0 0 0 0 0 0 0 0 0
ST_mem_lat_dist  0 0 0 0 0 0 0 0 0 0 0 0 0 0 0 0 0 0 0 0 0 0 0 0 0 0 0
----------------------------Interconnect-DETAILS--------------------------------
Class 0:
Packet latency average = 16.0857
	minimum = 6
	maximum = 511
Network latency average = 12.763
	minimum = 6
	maximum = 279
Slowest packet = 3112
Flit latency average = 10.7173
	minimum = 6
	maximum = 278
Slowest flit = 13468
Fragmentation average = 0.00634421
	minimum = 0
	maximum = 130
Injected packet rate average = 0.0270645
	minimum = 0.0243155 (at node 0)
	maximum = 0.0361854 (at node 22)
Accepted packet rate average = 0.0270645
	minimum = 0.0243155 (at node 0)
	maximum = 0.0361854 (at node 22)
Injected flit rate average = 0.0676744
	minimum = 0.0324051 (at node 0)
	maximum = 0.117206 (at node 22)
Accepted flit rate average= 0.0676744
	minimum = 0.0361854 (at node 16)
	maximum = 0.0905725 (at node 1)
Injected packet length average = 2.50049
Accepted packet length average = 2.50049
Total in-flight flits = 0 (0 measured)
====== Overall Traffic Statistics ======
====== Traffic class 0 ======
Packet latency average = 16.0857 (1 samples)
	minimum = 6 (1 samples)
	maximum = 511 (1 samples)
Network latency average = 12.763 (1 samples)
	minimum = 6 (1 samples)
	maximum = 279 (1 samples)
Flit latency average = 10.7173 (1 samples)
	minimum = 6 (1 samples)
	maximum = 278 (1 samples)
Fragmentation average = 0.00634421 (1 samples)
	minimum = 0 (1 samples)
	maximum = 130 (1 samples)
Injected packet rate average = 0.0270645 (1 samples)
	minimum = 0.0243155 (1 samples)
	maximum = 0.0361854 (1 samples)
Accepted packet rate average = 0.0270645 (1 samples)
	minimum = 0.0243155 (1 samples)
	maximum = 0.0361854 (1 samples)
Injected flit rate average = 0.0676744 (1 samples)
	minimum = 0.0324051 (1 samples)
	maximum = 0.117206 (1 samples)
Accepted flit rate average = 0.0676744 (1 samples)
	minimum = 0.0361854 (1 samples)
	maximum = 0.0905725 (1 samples)
Injected packet size average = 2.50049 (1 samples)
Accepted packet size average = 2.50049 (1 samples)
Hops average = 1 (1 samples)
----------------------------END-of-Interconnect-DETAILS-------------------------


gpgpu_simulation_time = 0 days, 0 hrs, 3 min, 18 sec (198 sec)
gpgpu_simulation_rate = 371310 (inst/sec)
gpgpu_simulation_rate = 649 (cycle/sec)
197.804092 s
Copying data from device to host...0.000816 s
Verifying results...TEST PASSED

